<?xml version="1.0" encoding="UTF-8"?>

<!-- generated on 05/11/20 11:16:31 by Eclipse SUMO netgenerate Version 1.5.0
<configuration xmlns:xsi="http://www.w3.org/2001/XMLSchema-instance" xsi:noNamespaceSchemaLocation="http://sumo.dlr.de/xsd/netgenerateConfiguration.xsd">

    <random_network>
        <rand value="true"/>
        <rand.iterations value="300"/>
    </random_network>

    <output>
        <output-file value="example.net.xml"/>
    </output>

    <processing>
        <roundabouts.guess value="true"/>
    </processing>

    <tls_building>
        <tls.guess value="true"/>
        <tls.guess.threshold value="50"/>
    </tls_building>

    <pedestrian>
        <sidewalks.guess value="true"/>
        <crossings.guess value="true"/>
    </pedestrian>

    <random_number>
        <random value="true"/>
    </random_number>

</configuration>
-->

<net version="1.3" junctionCornerDetail="5" walkingareas="true" limitTurnSpeed="5.50" xmlns:xsi="http://www.w3.org/2001/XMLSchema-instance" xsi:noNamespaceSchemaLocation="http://sumo.dlr.de/xsd/net_file.xsd">

    <location netOffset="1897.72,2706.42" convBoundary="0.00,0.00,3565.00,3748.39" origBoundary="-1897.72,-2706.42,1667.28,1041.97" projParameter="!"/>

    <edge id=":1_0" function="internal">
        <lane id=":1_0_0" index="0" disallow="pedestrian" speed="6.32" length="6.86" shape="1906.78,2712.28 1903.50,2711.27 1901.15,2711.62 1900.48,2712.43"/>
    </edge>
    <edge id=":1_1" function="internal">
        <lane id=":1_1_0" index="0" disallow="pedestrian" speed="11.70" length="19.55" shape="1906.78,2712.28 1902.16,2709.21 1899.06,2704.87 1897.49,2699.27 1897.47,2696.41"/>
    </edge>
    <edge id=":1_2" function="internal">
        <lane id=":1_2_0" index="0" disallow="pedestrian" speed="8.24" length="16.74" shape="1906.78,2712.28 1902.29,2709.24 1900.96,2705.62 1902.79,2701.43 1904.88,2699.44"/>
    </edge>
    <edge id=":1_3" function="internal">
        <lane id=":1_3_0" index="0" disallow="pedestrian" speed="3.65" length="4.67" shape="1906.78,2712.28 1906.02,2711.06 1905.98,2710.16 1906.68,2709.60 1908.10,2709.36"/>
    </edge>
    <edge id=":1_16" function="internal">
        <lane id=":1_16_0" index="0" disallow="pedestrian" speed="6.32" length="4.30" shape="1900.48,2712.43 1899.72,2713.33 1899.23,2716.41"/>
    </edge>
    <edge id=":1_17" function="internal">
        <lane id=":1_17_0" index="0" disallow="pedestrian" speed="11.70" length="4.02" shape="1897.47,2696.41 1897.44,2692.39"/>
    </edge>
    <edge id=":1_18" function="internal">
        <lane id=":1_18_0" index="0" disallow="pedestrian" speed="8.24" length="4.02" shape="1904.88,2699.44 1907.80,2696.66"/>
    </edge>
    <edge id=":1_4" function="internal">
        <lane id=":1_4_0" index="0" disallow="pedestrian" speed="6.75" length="8.90" shape="1909.75,2699.20 1906.29,2702.41 1904.87,2705.17 1905.14,2706.21"/>
    </edge>
    <edge id=":1_5" function="internal">
        <lane id=":1_5_0" index="0" disallow="pedestrian" speed="13.51" length="16.82" shape="1909.75,2699.20 1905.18,2703.28 1901.90,2707.51 1899.92,2711.89 1899.83,2712.42"/>
    </edge>
    <edge id=":1_6" function="internal">
        <lane id=":1_6_0" index="0" disallow="pedestrian" speed="7.97" length="18.08" shape="1909.75,2699.20 1903.74,2702.80 1899.69,2702.86 1897.58,2699.39 1897.52,2696.42"/>
    </edge>
    <edge id=":1_7" function="internal">
        <lane id=":1_7_0" index="0" disallow="pedestrian" speed="3.65" length="4.67" shape="1909.75,2699.20 1908.31,2699.29 1907.50,2698.90 1907.33,2698.03 1907.80,2696.66"/>
    </edge>
    <edge id=":1_19" function="internal">
        <lane id=":1_19_0" index="0" disallow="pedestrian" speed="6.75" length="4.55" shape="1905.14,2706.21 1905.47,2707.49 1908.10,2709.36"/>
    </edge>
    <edge id=":1_20" function="internal">
        <lane id=":1_20_0" index="0" disallow="pedestrian" speed="13.51" length="4.04" shape="1899.83,2712.42 1899.23,2716.41"/>
    </edge>
    <edge id=":1_21" function="internal">
        <lane id=":1_21_0" index="0" disallow="pedestrian" speed="7.97" length="4.03" shape="1897.52,2696.42 1897.44,2692.39"/>
    </edge>
    <edge id=":1_8" function="internal">
        <lane id=":1_8_0" index="0" disallow="pedestrian" speed="6.23" length="1.23" shape="1900.62,2692.69 1900.65,2693.92"/>
    </edge>
    <edge id=":1_9" function="internal">
        <lane id=":1_9_0" index="0" disallow="pedestrian" speed="10.70" length="15.53" shape="1900.62,2692.69 1900.64,2698.51 1901.89,2703.23 1904.38,2706.85 1904.74,2707.09"/>
    </edge>
    <edge id=":1_10" function="internal">
        <lane id=":1_10_0" index="0" disallow="pedestrian" speed="13.89" length="23.76" shape="1900.62,2692.69 1899.23,2716.41"/>
    </edge>
    <edge id=":1_11" function="internal">
        <lane id=":1_11_0" index="0" disallow="pedestrian" speed="3.65" length="4.67" shape="1900.62,2692.69 1899.71,2693.81 1898.88,2694.14 1898.12,2693.66 1897.44,2692.39"/>
    </edge>
    <edge id=":1_22" function="internal">
        <lane id=":1_22_0" index="0" disallow="pedestrian" speed="6.23" length="11.66" shape="1900.65,2693.92 1900.71,2696.77 1901.93,2698.79 1904.30,2698.76 1907.80,2696.66"/>
    </edge>
    <edge id=":1_23" function="internal">
        <lane id=":1_23_0" index="0" disallow="pedestrian" speed="10.70" length="4.06" shape="1904.74,2707.09 1908.10,2709.36"/>
    </edge>
    <edge id=":1_12" function="internal">
        <lane id=":1_12_0" index="0" disallow="pedestrian" speed="13.89" length="24.03" shape="1896.03,2716.38 1897.44,2692.39"/>
    </edge>
    <edge id=":1_13" function="internal">
        <lane id=":1_13_0" index="0" disallow="pedestrian" speed="13.89" length="19.75" shape="1896.03,2716.38 1896.80,2711.12 1899.02,2706.07 1902.68,2701.25 1904.81,2699.34"/>
    </edge>
    <edge id=":1_14" function="internal">
        <lane id=":1_14_0" index="0" disallow="pedestrian" speed="7.88" length="14.08" shape="1896.03,2716.38 1896.82,2711.28 1899.10,2708.41 1902.86,2707.77 1904.24,2708.19"/>
    </edge>
    <edge id=":1_15" function="internal">
        <lane id=":1_15_0" index="0" disallow="pedestrian" speed="3.65" length="4.67" shape="1896.03,2716.38 1896.84,2715.19 1897.64,2714.80 1898.44,2715.21 1899.23,2716.41"/>
    </edge>
    <edge id=":1_24" function="internal">
        <lane id=":1_24_0" index="0" disallow="pedestrian" speed="13.89" length="4.01" shape="1904.81,2699.34 1907.80,2696.66"/>
    </edge>
    <edge id=":1_25" function="internal">
        <lane id=":1_25_0" index="0" disallow="pedestrian" speed="7.88" length="4.03" shape="1904.24,2708.19 1908.10,2709.36"/>
    </edge>
    <edge id=":1_c0" function="crossing" crossingEdges="19 -19">
        <lane id=":1_c0_0" index="0" allow="pedestrian" speed="1.00" length="6.40" width="4.00" shape="1906.94,2707.08 1904.30,2712.91"/>
    </edge>
    <edge id=":1_c1" function="crossing" crossingEdges="3 -3">
        <lane id=":1_c1_0" index="0" allow="pedestrian" speed="1.00" length="6.40" width="4.00" shape="1905.24,2696.61 1909.13,2701.69"/>
    </edge>
    <edge id=":1_c2" function="crossing" crossingEdges="5 -5">
        <lane id=":1_c2_0" index="0" allow="pedestrian" speed="1.00" length="6.40" width="4.00" shape="1895.65,2694.23 1902.03,2694.84"/>
    </edge>
    <edge id=":1_c3" function="crossing" crossingEdges="9 -9">
        <lane id=":1_c3_0" index="0" allow="pedestrian" speed="1.00" length="6.40" width="4.00" shape="1900.84,2714.43 1894.44,2714.37"/>
    </edge>
    <edge id=":1_w0" function="walkingarea">
        <lane id=":1_w0_0" index="0" allow="pedestrian" speed="1.00" length="3.62" width="4.00" shape="1900.83,2716.43 1902.83,2716.45 1905.29,2715.56 1906.12,2713.74 1904.51,2713.15 1903.20,2712.98 1902.17,2713.22 1901.43,2713.88 1900.99,2714.95"/>
    </edge>
    <edge id=":1_w1" function="walkingarea">
        <lane id=":1_w1_0" index="0" allow="pedestrian" speed="1.00" length="4.84" width="4.00" shape="1908.76,2707.91 1909.59,2706.09 1911.94,2702.05 1910.72,2700.47 1908.77,2702.13 1907.47,2703.62 1906.82,2704.95 1906.82,2706.10 1907.46,2707.09"/>
    </edge>
    <edge id=":1_w2" function="walkingarea">
        <lane id=":1_w2_0" index="0" allow="pedestrian" speed="1.00" length="3.33" width="4.00" shape="1906.82,2695.39 1905.60,2693.81 1904.21,2693.03 1902.21,2692.84 1902.17,2694.74 1902.45,2696.04 1903.06,2696.76 1903.99,2696.89 1905.24,2696.44"/>
    </edge>
    <edge id=":1_w3" function="walkingarea">
        <lane id=":1_w3_0" index="0" allow="pedestrian" speed="1.00" length="15.56" width="4.00" shape="1895.47,2696.23 1895.84,2692.24 1893.85,2692.06 1892.43,2716.35 1894.43,2716.37 1894.46,2712.37"/>
    </edge>
    <edge id=":1023_0" function="internal">
        <lane id=":1023_0_0" index="0" disallow="pedestrian" speed="10.48" length="11.02" shape="1261.67,1652.25 1259.86,1653.60 1258.26,1656.27 1256.87,1660.25 1256.56,1661.64"/>
    </edge>
    <edge id=":1023_1" function="internal">
        <lane id=":1023_1_0" index="0" disallow="pedestrian" speed="13.89" length="17.76" shape="1261.67,1652.25 1256.77,1654.15 1253.53,1655.73 1250.41,1657.56 1245.85,1660.21"/>
    </edge>
    <edge id=":1023_2" function="internal">
        <lane id=":1023_2_0" index="0" disallow="pedestrian" speed="3.65" length="2.34" shape="1261.67,1652.25 1260.27,1651.91 1259.63,1651.29"/>
    </edge>
    <edge id=":1023_9" function="internal">
        <lane id=":1023_9_0" index="0" disallow="pedestrian" speed="10.48" length="4.00" shape="1256.56,1661.64 1255.69,1665.55"/>
    </edge>
    <edge id=":1023_10" function="internal">
        <lane id=":1023_10_0" index="0" disallow="pedestrian" speed="3.65" length="2.34" shape="1259.63,1651.29 1259.73,1650.40 1260.59,1649.24"/>
    </edge>
    <edge id=":1023_3" function="internal">
        <lane id=":1023_3_0" index="0" disallow="pedestrian" speed="13.89" length="18.28" shape="1244.28,1657.42 1248.98,1654.69 1252.20,1652.82 1255.54,1651.20 1260.59,1649.24"/>
    </edge>
    <edge id=":1023_4" function="internal">
        <lane id=":1023_4_0" index="0" disallow="pedestrian" speed="7.90" length="7.73" shape="1244.28,1657.42 1250.37,1654.91 1251.51,1655.07"/>
    </edge>
    <edge id=":1023_5" function="internal">
        <lane id=":1023_5_0" index="0" disallow="pedestrian" speed="3.65" length="2.34" shape="1244.28,1657.42 1245.72,1657.53 1246.46,1658.03"/>
    </edge>
    <edge id=":1023_11" function="internal">
        <lane id=":1023_11_0" index="0" disallow="pedestrian" speed="7.90" length="13.36" shape="1251.51,1655.07 1254.30,1655.44 1256.07,1658.98 1255.69,1665.55"/>
    </edge>
    <edge id=":1023_12" function="internal">
        <lane id=":1023_12_0" index="0" disallow="pedestrian" speed="3.65" length="2.34" shape="1246.46,1658.03 1246.50,1658.92 1245.85,1660.21"/>
    </edge>
    <edge id=":1023_6" function="internal">
        <lane id=":1023_6_0" index="0" disallow="pedestrian" speed="6.20" length="12.37" shape="1252.54,1664.98 1252.76,1661.13 1251.72,1659.05 1249.42,1658.74 1245.85,1660.21"/>
    </edge>
    <edge id=":1023_7" function="internal">
        <lane id=":1023_7_0" index="0" disallow="pedestrian" speed="11.53" length="18.32" shape="1252.54,1664.98 1253.97,1658.85 1255.79,1654.18 1258.00,1650.98 1260.59,1649.24"/>
    </edge>
    <edge id=":1023_8" function="internal">
        <lane id=":1023_8_0" index="0" disallow="pedestrian" speed="3.65" length="4.67" shape="1252.54,1664.98 1253.54,1663.94 1254.40,1663.69 1255.11,1664.23 1255.69,1665.55"/>
    </edge>
    <edge id=":1023_c0" function="crossing" crossingEdges="-1024 1024">
        <lane id=":1023_c0_0" index="0" allow="pedestrian" speed="1.00" length="6.40" width="4.00" shape="1258.16,1648.42 1260.34,1654.43"/>
    </edge>
    <edge id=":1023_c1" function="crossing" crossingEdges="1365 -1365">
        <lane id=":1023_c1_0" index="0" allow="pedestrian" speed="1.00" length="6.40" width="4.00" shape="1248.37,1660.63 1245.25,1655.04"/>
    </edge>
    <edge id=":1023_c2" function="crossing" crossingEdges="1421 -1421">
        <lane id=":1023_c2_0" index="0" allow="pedestrian" speed="1.00" length="6.40" width="4.00" shape="1257.62,1663.87 1251.32,1662.73"/>
    </edge>
    <edge id=":1023_w0" function="walkingarea">
        <lane id=":1023_w0_0" index="0" allow="pedestrian" speed="1.00" length="8.10" width="4.00" shape="1257.26,1665.84 1259.23,1666.19 1262.90,1655.64 1262.22,1653.75 1261.26,1654.39 1260.35,1655.57 1259.50,1657.31 1258.70,1659.60 1257.95,1662.44"/>
    </edge>
    <edge id=":1023_w1" function="walkingarea">
        <lane id=":1023_w1_0" index="0" allow="pedestrian" speed="1.00" length="11.81" width="4.00" shape="1260.04,1647.74 1259.36,1645.85 1242.52,1654.28 1243.50,1656.02 1246.92,1654.05 1249.44,1652.56 1251.54,1651.36 1253.68,1650.28 1256.36,1649.13"/>
    </edge>
    <edge id=":1023_w2" function="walkingarea">
        <lane id=":1023_w2_0" index="0" allow="pedestrian" speed="1.00" length="3.34" width="4.00" shape="1246.63,1661.60 1247.61,1663.35 1248.99,1664.34 1250.96,1664.70 1251.15,1662.90 1250.98,1661.62 1250.44,1660.85 1249.53,1660.59 1248.26,1660.84"/>
    </edge>
    <edge id=":1025_0" function="internal">
        <lane id=":1025_0_0" index="0" disallow="pedestrian" speed="7.58" length="7.70" shape="1157.15,1503.54 1156.81,1499.33 1155.77,1496.31 1155.58,1496.10"/>
    </edge>
    <edge id=":1025_1" function="internal">
        <lane id=":1025_1_0" index="0" disallow="pedestrian" speed="13.89" length="18.21" shape="1157.15,1503.54 1157.65,1485.33"/>
    </edge>
    <edge id=":1025_2" function="internal">
        <lane id=":1025_2_0" index="0" disallow="pedestrian" speed="7.80" length="7.47" shape="1157.15,1503.54 1157.90,1497.86 1158.94,1496.46"/>
    </edge>
    <edge id=":1025_3" function="internal">
        <lane id=":1025_3_0" index="0" disallow="pedestrian" speed="3.65" length="2.34" shape="1157.15,1503.54 1157.95,1502.34 1158.75,1501.94"/>
    </edge>
    <edge id=":1025_16" function="internal">
        <lane id=":1025_16_0" index="0" disallow="pedestrian" speed="7.58" length="4.75" shape="1155.58,1496.10 1154.04,1494.48 1151.61,1493.83"/>
    </edge>
    <edge id=":1025_17" function="internal">
        <lane id=":1025_17_0" index="0" disallow="pedestrian" speed="7.80" length="11.52" shape="1158.94,1496.46 1160.15,1494.83 1163.91,1494.46 1169.16,1496.73"/>
    </edge>
    <edge id=":1025_18" function="internal">
        <lane id=":1025_18_0" index="0" disallow="pedestrian" speed="3.65" length="2.34" shape="1158.75,1501.94 1159.55,1502.34 1160.35,1503.54"/>
    </edge>
    <edge id=":1025_4" function="internal">
        <lane id=":1025_4_0" index="0" disallow="pedestrian" speed="6.17" length="7.15" shape="1167.52,1499.47 1164.38,1498.12 1162.14,1498.34 1161.26,1499.54"/>
    </edge>
    <edge id=":1025_5" function="internal">
        <lane id=":1025_5_0" index="0" disallow="pedestrian" speed="13.89" length="17.23" shape="1167.52,1499.47 1163.17,1496.78 1160.02,1495.08 1156.64,1494.17 1151.61,1493.83"/>
    </edge>
    <edge id=":1025_6" function="internal">
        <lane id=":1025_6_0" index="0" disallow="pedestrian" speed="11.09" length="9.21" shape="1167.52,1499.47 1162.99,1496.25 1160.52,1493.56"/>
    </edge>
    <edge id=":1025_7" function="internal">
        <lane id=":1025_7_0" index="0" disallow="pedestrian" speed="3.65" length="2.34" shape="1167.52,1499.47 1166.90,1498.17 1166.97,1497.28"/>
    </edge>
    <edge id=":1025_19" function="internal">
        <lane id=":1025_19_0" index="0" disallow="pedestrian" speed="6.17" length="4.18" shape="1161.26,1499.54 1160.80,1500.15 1160.35,1503.54"/>
    </edge>
    <edge id=":1025_20" function="internal">
        <lane id=":1025_20_0" index="0" disallow="pedestrian" speed="11.09" length="8.93" shape="1160.52,1493.56 1159.83,1492.81 1158.05,1489.18 1157.65,1485.33"/>
    </edge>
    <edge id=":1025_21" function="internal">
        <lane id=":1025_21_0" index="0" disallow="pedestrian" speed="3.65" length="2.34" shape="1166.97,1497.28 1167.72,1496.80 1169.16,1496.73"/>
    </edge>
    <edge id=":1025_8" function="internal">
        <lane id=":1025_8_0" index="0" disallow="pedestrian" speed="10.00" length="10.60" shape="1160.84,1485.56 1161.20,1488.48 1162.71,1491.32 1165.36,1494.07 1165.88,1494.43"/>
    </edge>
    <edge id=":1025_9" function="internal">
        <lane id=":1025_9_0" index="0" disallow="pedestrian" speed="13.89" length="17.98" shape="1160.84,1485.56 1160.35,1503.54"/>
    </edge>
    <edge id=":1025_10" function="internal">
        <lane id=":1025_10_0" index="0" disallow="pedestrian" speed="8.10" length="5.40" shape="1160.84,1485.56 1160.04,1489.24 1159.11,1490.58"/>
    </edge>
    <edge id=":1025_11" function="internal">
        <lane id=":1025_11_0" index="0" disallow="pedestrian" speed="3.65" length="2.34" shape="1160.84,1485.56 1159.96,1486.70 1159.13,1487.05"/>
    </edge>
    <edge id=":1025_22" function="internal">
        <lane id=":1025_22_0" index="0" disallow="pedestrian" speed="10.00" length="4.01" shape="1165.88,1494.43 1169.16,1496.73"/>
    </edge>
    <edge id=":1025_23" function="internal">
        <lane id=":1025_23_0" index="0" disallow="pedestrian" speed="8.10" length="8.57" shape="1159.11,1490.58 1158.23,1491.84 1155.43,1493.37 1151.61,1493.83"/>
    </edge>
    <edge id=":1025_24" function="internal">
        <lane id=":1025_24_0" index="0" disallow="pedestrian" speed="3.65" length="2.34" shape="1159.13,1487.05 1158.36,1486.59 1157.65,1485.33"/>
    </edge>
    <edge id=":1025_12" function="internal">
        <lane id=":1025_12_0" index="0" disallow="pedestrian" speed="6.62" length="4.71" shape="1151.67,1490.63 1154.14,1490.34 1155.96,1489.36 1156.05,1489.23"/>
    </edge>
    <edge id=":1025_13" function="internal">
        <lane id=":1025_13_0" index="0" disallow="pedestrian" speed="13.89" length="18.91" shape="1151.67,1490.63 1157.19,1490.98 1160.91,1491.96 1164.38,1493.79 1169.16,1496.73"/>
    </edge>
    <edge id=":1025_14" function="internal">
        <lane id=":1025_14_0" index="0" disallow="pedestrian" speed="8.88" length="5.49" shape="1151.67,1490.63 1155.47,1491.50 1156.66,1492.56"/>
    </edge>
    <edge id=":1025_15" function="internal">
        <lane id=":1025_15_0" index="0" disallow="pedestrian" speed="3.65" length="2.34" shape="1151.67,1490.63 1152.86,1491.45 1153.24,1492.26"/>
    </edge>
    <edge id=":1025_25" function="internal">
        <lane id=":1025_25_0" index="0" disallow="pedestrian" speed="6.62" length="4.29" shape="1156.05,1489.23 1157.13,1487.69 1157.65,1485.33"/>
    </edge>
    <edge id=":1025_26" function="internal">
        <lane id=":1025_26_0" index="0" disallow="pedestrian" speed="8.88" length="11.99" shape="1156.66,1492.56 1158.18,1493.93 1159.81,1497.95 1160.35,1503.54"/>
    </edge>
    <edge id=":1025_27" function="internal">
        <lane id=":1025_27_0" index="0" disallow="pedestrian" speed="3.65" length="2.34" shape="1153.24,1492.26 1152.83,1493.05 1151.61,1493.83"/>
    </edge>
    <edge id=":1025_c0" function="crossing" crossingEdges="1212 -1212">
        <lane id=":1025_c0_0" index="0" allow="pedestrian" speed="1.00" length="6.40" width="4.00" shape="1161.95,1501.54 1155.55,1501.54"/>
    </edge>
    <edge id=":1025_c1" function="crossing" crossingEdges="-1026 1026">
        <lane id=":1025_c1_0" index="0" allow="pedestrian" speed="1.00" length="6.40" width="4.00" shape="1168.27,1494.33 1164.98,1499.82"/>
    </edge>
    <edge id=":1025_c2" function="crossing" crossingEdges="1222 -1222">
        <lane id=":1025_c2_0" index="0" allow="pedestrian" speed="1.00" length="6.40" width="4.00" shape="1155.91,1487.22 1162.29,1487.67"/>
    </edge>
    <edge id=":1025_c3" function="crossing" crossingEdges="1216 -1216">
        <lane id=":1025_c3_0" index="0" allow="pedestrian" speed="1.00" length="6.40" width="4.00" shape="1153.59,1495.47 1153.70,1489.07"/>
    </edge>
    <edge id=":1025_w0" function="walkingarea">
        <lane id=":1025_w0_0" index="0" allow="pedestrian" speed="1.00" length="5.53" width="4.00" shape="1151.59,1495.43 1151.55,1497.43 1153.55,1503.54 1155.55,1503.54 1155.44,1501.08 1155.11,1499.07 1154.56,1497.49 1153.79,1496.36 1152.80,1495.68"/>
    </edge>
    <edge id=":1025_w1" function="walkingarea">
        <lane id=":1025_w1_0" index="0" allow="pedestrian" speed="1.00" length="3.36" width="4.00" shape="1161.95,1503.54 1163.95,1503.53 1165.67,1502.56 1166.70,1500.85 1165.25,1500.13 1164.06,1499.88 1163.14,1500.10 1162.48,1500.78 1162.08,1501.92"/>
    </edge>
    <edge id=":1025_w2" function="walkingarea">
        <lane id=":1025_w2_0" index="0" allow="pedestrian" speed="1.00" length="7.53" width="4.00" shape="1169.98,1495.36 1171.01,1493.64 1164.43,1485.82 1162.44,1485.68 1162.55,1487.32 1163.12,1488.95 1164.15,1490.57 1165.63,1492.18 1167.58,1493.77"/>
    </edge>
    <edge id=":1025_w3" function="walkingarea">
        <lane id=":1025_w3_0" index="0" allow="pedestrian" speed="1.00" length="3.37" width="4.00" shape="1156.05,1485.22 1154.06,1485.08 1151.73,1487.03 1151.70,1489.03 1152.95,1488.95 1153.99,1488.64 1154.83,1488.12 1155.45,1487.37 1155.86,1486.41"/>
    </edge>
    <edge id=":1029_0" function="internal">
        <lane id=":1029_0_0" index="0" disallow="pedestrian" speed="13.89" length="12.91" shape="2062.78,1256.37 2060.39,1253.39 2058.58,1251.48 2056.57,1249.78 2053.55,1247.43"/>
    </edge>
    <edge id=":1029_1" function="internal">
        <lane id=":1029_1_0" index="0" disallow="pedestrian" speed="8.98" length="5.10" shape="2062.78,1256.37 2061.23,1253.53 2060.99,1251.68"/>
    </edge>
    <edge id=":1029_2" function="internal">
        <lane id=":1029_2_0" index="0" disallow="pedestrian" speed="3.65" length="2.34" shape="2062.78,1256.37 2062.67,1254.93 2063.06,1254.13"/>
    </edge>
    <edge id=":1029_9" function="internal">
        <lane id=":1029_9_0" index="0" disallow="pedestrian" speed="8.98" length="8.59" shape="2060.99,1251.68 2060.82,1250.46 2061.55,1247.17 2063.41,1243.64"/>
    </edge>
    <edge id=":1029_10" function="internal">
        <lane id=":1029_10_0" index="0" disallow="pedestrian" speed="3.65" length="2.34" shape="2063.06,1254.13 2063.94,1253.95 2065.31,1254.41"/>
    </edge>
    <edge id=":1029_3" function="internal">
        <lane id=":1029_3_0" index="0" disallow="pedestrian" speed="7.64" length="9.67" shape="2066.07,1245.42 2064.68,1247.99 2064.09,1250.35 2064.30,1252.49 2065.31,1254.41"/>
    </edge>
    <edge id=":1029_4" function="internal">
        <lane id=":1029_4_0" index="0" disallow="pedestrian" speed="7.93" length="14.73" shape="2066.07,1245.42 2063.35,1248.45 2060.35,1249.80 2057.08,1249.46 2053.55,1247.43"/>
    </edge>
    <edge id=":1029_5" function="internal">
        <lane id=":1029_5_0" index="0" disallow="pedestrian" speed="3.65" length="4.67" shape="2066.07,1245.42 2064.74,1245.97 2063.85,1245.86 2063.41,1245.08 2063.41,1243.64"/>
    </edge>
    <edge id=":1029_6" function="internal">
        <lane id=":1029_6_0" index="0" disallow="pedestrian" speed="6.43" length="4.99" shape="2055.52,1244.91 2057.75,1246.19 2059.81,1246.40 2060.13,1246.26"/>
    </edge>
    <edge id=":1029_7" function="internal">
        <lane id=":1029_7_0" index="0" disallow="pedestrian" speed="13.89" length="13.71" shape="2055.52,1244.91 2058.73,1247.41 2060.86,1249.21 2062.77,1251.24 2065.31,1254.41"/>
    </edge>
    <edge id=":1029_8" function="internal">
        <lane id=":1029_8_0" index="0" disallow="pedestrian" speed="3.65" length="2.34" shape="2055.52,1244.91 2055.97,1246.28 2055.79,1247.16"/>
    </edge>
    <edge id=":1029_11" function="internal">
        <lane id=":1029_11_0" index="0" disallow="pedestrian" speed="6.43" length="4.29" shape="2060.13,1246.26 2061.69,1245.55 2063.41,1243.64"/>
    </edge>
    <edge id=":1029_12" function="internal">
        <lane id=":1029_12_0" index="0" disallow="pedestrian" speed="3.65" length="2.34" shape="2055.79,1247.16 2054.98,1247.54 2053.55,1247.43"/>
    </edge>
    <edge id=":1029_c0" function="crossing" crossingEdges="-1030 1030">
        <lane id=":1029_c0_0" index="0" allow="pedestrian" speed="1.00" length="6.40" width="4.00" shape="2065.35,1251.85 2060.29,1255.77"/>
    </edge>
    <edge id=":1029_c1" function="crossing" crossingEdges="1228 -1228">
        <lane id=":1029_c1_0" index="0" allow="pedestrian" speed="1.00" length="6.40" width="4.00" shape="2060.97,1244.41 2066.29,1247.97"/>
    </edge>
    <edge id=":1029_c2" function="crossing" crossingEdges="1226 -1226">
        <lane id=":1029_c2_0" index="0" allow="pedestrian" speed="1.00" length="6.40" width="4.00" shape="2054.14,1249.92 2058.08,1244.88"/>
    </edge>
    <edge id=":1029_w0" function="walkingarea">
        <lane id=":1029_w0_0" index="0" allow="pedestrian" speed="1.00" length="7.67" width="4.00" shape="2052.56,1248.69 2051.33,1250.27 2059.93,1258.58 2061.51,1257.35 2059.87,1255.27 2058.59,1253.77 2057.45,1252.61 2056.22,1251.55 2054.66,1250.32"/>
    </edge>
    <edge id=":1029_w1" function="walkingarea">
        <lane id=":1029_w1_0" index="0" allow="pedestrian" speed="1.00" length="4.20" width="4.00" shape="2066.57,1253.43 2068.15,1252.20 2069.07,1247.42 2067.40,1246.31 2066.56,1247.73 2066.00,1249.05 2065.72,1250.29 2065.73,1251.43 2066.01,1252.48"/>
    </edge>
    <edge id=":1029_w2" function="walkingarea">
        <lane id=":1029_w2_0" index="0" allow="pedestrian" speed="1.00" length="3.32" width="4.00" shape="2062.08,1242.75 2060.42,1241.64 2057.73,1242.07 2056.50,1243.65 2057.57,1244.33 2058.58,1244.69 2059.53,1244.70 2060.44,1244.39 2061.29,1243.74"/>
    </edge>
    <edge id=":1031_0" function="internal">
        <lane id=":1031_0_0" index="0" disallow="pedestrian" speed="8.52" length="13.09" shape="2323.88,1439.17 2319.57,1438.53 2316.09,1439.69 2313.44,1442.66 2313.05,1443.67"/>
    </edge>
    <edge id=":1031_1" function="internal">
        <lane id=":1031_1_0" index="0" disallow="pedestrian" speed="13.89" length="18.53" shape="2323.88,1439.17 2318.60,1438.04 2313.20,1438.06 2307.68,1439.24 2305.75,1440.04"/>
    </edge>
    <edge id=":1031_2" function="internal">
        <lane id=":1031_2_0" index="0" disallow="pedestrian" speed="13.89" length="25.20" shape="2323.88,1439.17 2300.21,1430.52"/>
    </edge>
    <edge id=":1031_3" function="internal">
        <lane id=":1031_3_0" index="0" disallow="pedestrian" speed="13.89" length="9.37" shape="2323.88,1439.17 2318.42,1436.65 2315.82,1434.52"/>
    </edge>
    <edge id=":1031_4" function="internal">
        <lane id=":1031_4_0" index="0" disallow="pedestrian" speed="7.82" length="7.77" shape="2323.88,1439.17 2318.51,1436.61 2317.46,1435.12"/>
    </edge>
    <edge id=":1031_5" function="internal">
        <lane id=":1031_5_0" index="0" disallow="pedestrian" speed="3.65" length="2.34" shape="2323.88,1439.17 2322.99,1438.04 2322.86,1437.15"/>
    </edge>
    <edge id=":1031_36" function="internal">
        <lane id=":1031_36_0" index="0" disallow="pedestrian" speed="8.52" length="4.03" shape="2313.05,1443.67 2311.61,1447.43"/>
    </edge>
    <edge id=":1031_37" function="internal">
        <lane id=":1031_37_0" index="0" disallow="pedestrian" speed="13.89" length="4.01" shape="2305.75,1440.04 2302.05,1441.57"/>
    </edge>
    <edge id=":1031_38" function="internal">
        <lane id=":1031_38_0" index="0" disallow="pedestrian" speed="13.89" length="15.11" shape="2315.82,1434.52 2313.90,1432.95 2310.33,1428.09 2307.69,1422.05"/>
    </edge>
    <edge id=":1031_39" function="internal">
        <lane id=":1031_39_0" index="0" disallow="pedestrian" speed="7.82" length="11.77" shape="2317.46,1435.12 2316.31,1433.49 2317.28,1429.79 2321.42,1425.52"/>
    </edge>
    <edge id=":1031_40" function="internal">
        <lane id=":1031_40_0" index="0" disallow="pedestrian" speed="3.65" length="2.34" shape="2322.86,1437.15 2323.49,1436.52 2324.88,1436.13"/>
    </edge>
    <edge id=":1031_6" function="internal">
        <lane id=":1031_6_0" index="0" disallow="pedestrian" speed="6.17" length="7.45" shape="2323.42,1428.02 2320.96,1430.56 2320.38,1432.75 2321.33,1434.10"/>
    </edge>
    <edge id=":1031_7" function="internal">
        <lane id=":1031_7_0" index="0" disallow="pedestrian" speed="13.89" length="19.30" shape="2323.42,1428.02 2318.61,1432.32 2315.48,1436.42 2313.37,1441.18 2312.70,1443.58"/>
    </edge>
    <edge id=":1031_8" function="internal">
        <lane id=":1031_8_0" index="0" disallow="pedestrian" speed="13.89" length="25.36" shape="2323.42,1428.02 2318.03,1432.13 2313.14,1435.43 2308.04,1438.41 2302.05,1441.57"/>
    </edge>
    <edge id=":1031_9" function="internal">
        <lane id=":1031_9_0" index="0" disallow="pedestrian" speed="13.22" length="8.67" shape="2323.42,1428.02 2318.27,1431.12 2315.69,1431.79"/>
    </edge>
    <edge id=":1031_10" function="internal">
        <lane id=":1031_10_0" index="0" disallow="pedestrian" speed="8.64" length="7.17" shape="2323.42,1428.02 2318.33,1430.91 2317.01,1430.90"/>
    </edge>
    <edge id=":1031_11" function="internal">
        <lane id=":1031_11_0" index="0" disallow="pedestrian" speed="3.65" length="2.34" shape="2323.42,1428.02 2321.98,1428.14 2321.17,1427.77"/>
    </edge>
    <edge id=":1031_41" function="internal">
        <lane id=":1031_41_0" index="0" disallow="pedestrian" speed="6.17" length="4.15" shape="2321.33,1434.10 2321.69,1434.61 2324.88,1436.13"/>
    </edge>
    <edge id=":1031_42" function="internal">
        <lane id=":1031_42_0" index="0" disallow="pedestrian" speed="13.89" length="4.00" shape="2312.70,1443.58 2311.61,1447.43"/>
    </edge>
    <edge id=":1031_43" function="internal">
        <lane id=":1031_43_0" index="0" disallow="pedestrian" speed="13.22" length="15.84" shape="2315.69,1431.79 2312.69,1432.57 2306.67,1432.37 2300.21,1430.52"/>
    </edge>
    <edge id=":1031_44" function="internal">
        <lane id=":1031_44_0" index="0" disallow="pedestrian" speed="8.64" length="14.10" shape="2317.01,1430.90 2314.02,1430.88 2310.47,1427.92 2307.69,1422.05"/>