<?xml version="1.0" encoding="UTF-8"?>

<!-- generated on 03/18/20 09:42:09 by Eclipse SUMO netgenerate Version 1.5.0
<configuration xmlns:xsi="http://www.w3.org/2001/XMLSchema-instance" xsi:noNamespaceSchemaLocation="http://sumo.dlr.de/xsd/netgenerateConfiguration.xsd">

    <random_network>
        <rand value="true"/>
        <rand.iterations value="200"/>
    </random_network>

    <output>
        <output-file value="example.net.xml"/>
    </output>

    <processing>
        <roundabouts.guess value="true"/>
    </processing>

    <tls_building>
        <tls.guess value="true"/>
        <tls.guess.threshold value="50"/>
    </tls_building>

    <pedestrian>
        <sidewalks.guess value="true"/>
        <crossings.guess value="true"/>
    </pedestrian>

    <random_number>
        <random value="true"/>
    </random_number>

</configuration>
-->

<net version="1.3" junctionCornerDetail="5" walkingareas="true" limitTurnSpeed="5.50" xmlns:xsi="http://www.w3.org/2001/XMLSchema-instance" xsi:noNamespaceSchemaLocation="http://sumo.dlr.de/xsd/net_file.xsd">

    <location netOffset="1019.92,2097.70" convBoundary="0.00,0.00,3130.95,2798.56" origBoundary="-1019.92,-2097.70,2111.03,700.86" projParameter="!"/>

    <edge id=":1_0" function="internal">
        <lane id=":1_0_0" index="0" disallow="pedestrian" speed="8.80" length="7.00" shape="1026.50,2098.45 1023.99,2099.16 1021.87,2100.58 1020.71,2102.00"/>
    </edge>
    <edge id=":1_1" function="internal">
        <lane id=":1_1_0" index="0" disallow="pedestrian" speed="13.89" length="18.01" shape="1026.50,2098.45 1021.22,2098.95 1017.57,2098.76 1013.96,2097.96 1008.78,2096.61"/>
    </edge>
    <edge id=":1_2" function="internal">
        <lane id=":1_2_0" index="0" disallow="pedestrian" speed="9.30" length="5.21" shape="1026.50,2098.45 1022.90,2098.15 1021.54,2097.30"/>
    </edge>
    <edge id=":1_3" function="internal">
        <lane id=":1_3_0" index="0" disallow="pedestrian" speed="3.65" length="2.34" shape="1026.50,2098.45 1025.21,2097.81 1024.71,2097.07"/>
    </edge>
    <edge id=":1_16" function="internal">
        <lane id=":1_16_0" index="0" disallow="pedestrian" speed="8.80" length="4.07" shape="1020.71,2102.00 1020.13,2102.71 1018.78,2105.56"/>
    </edge>
    <edge id=":1_17" function="internal">
        <lane id=":1_17_0" index="0" disallow="pedestrian" speed="9.30" length="11.94" shape="1021.54,2097.30 1019.82,2096.23 1017.26,2092.69 1015.22,2087.54"/>
    </edge>
    <edge id=":1_18" function="internal">
        <lane id=":1_18_0" index="0" disallow="pedestrian" speed="3.65" length="2.34" shape="1024.71,2097.07 1025.00,2096.22 1026.09,2095.27"/>
    </edge>
    <edge id=":1_4" function="internal">
        <lane id=":1_4_0" index="0" disallow="pedestrian" speed="8.05" length="7.89" shape="1018.29,2086.63 1019.82,2090.66 1021.62,2093.44 1021.83,2093.59"/>
    </edge>
    <edge id=":1_5" function="internal">
        <lane id=":1_5_0" index="0" disallow="pedestrian" speed="13.89" length="19.51" shape="1018.29,2086.63 1019.96,2092.16 1020.75,2096.15 1020.44,2100.12 1018.78,2105.56"/>
    </edge>
    <edge id=":1_6" function="internal">
        <lane id=":1_6_0" index="0" disallow="pedestrian" speed="7.80" length="7.28" shape="1018.29,2086.63 1019.18,2092.23 1018.63,2093.74"/>
    </edge>
    <edge id=":1_7" function="internal">
        <lane id=":1_7_0" index="0" disallow="pedestrian" speed="3.65" length="2.34" shape="1018.29,2086.63 1017.86,2088.01 1017.21,2088.62"/>
    </edge>
    <edge id=":1_19" function="internal">
        <lane id=":1_19_0" index="0" disallow="pedestrian" speed="8.05" length="4.73" shape="1021.83,2093.59 1023.71,2094.98 1026.09,2095.27"/>
    </edge>
    <edge id=":1_20" function="internal">
        <lane id=":1_20_0" index="0" disallow="pedestrian" speed="7.80" length="11.59" shape="1018.63,2093.74 1017.89,2095.77 1014.42,2097.23 1008.78,2096.61"/>
    </edge>
    <edge id=":1_21" function="internal">
        <lane id=":1_21_0" index="0" disallow="pedestrian" speed="3.65" length="2.34" shape="1017.21,2088.62 1016.33,2088.46 1015.22,2087.54"/>
    </edge>
    <edge id=":1_8" function="internal">
        <lane id=":1_8_0" index="0" disallow="pedestrian" speed="6.17" length="7.09" shape="1009.54,2093.50 1012.91,2093.87 1014.98,2093.00 1015.48,2091.64"/>
    </edge>
    <edge id=":1_9" function="internal">
        <lane id=":1_9_0" index="0" disallow="pedestrian" speed="13.89" length="16.82" shape="1009.54,2093.50 1014.38,2094.77 1017.75,2095.54 1021.16,2095.73 1026.09,2095.27"/>
    </edge>
    <edge id=":1_10" function="internal">
        <lane id=":1_10_0" index="0" disallow="pedestrian" speed="8.54" length="8.02" shape="1009.54,2093.50 1014.80,2095.41 1016.69,2096.93"/>
    </edge>
    <edge id=":1_11" function="internal">
        <lane id=":1_11_0" index="0" disallow="pedestrian" speed="3.65" length="2.34" shape="1009.54,2093.50 1010.52,2094.57 1010.72,2095.44"/>
    </edge>
    <edge id=":1_22" function="internal">
        <lane id=":1_22_0" index="0" disallow="pedestrian" speed="6.17" length="4.19" shape="1015.48,2091.64 1015.75,2090.89 1015.22,2087.54"/>
    </edge>
    <edge id=":1_23" function="internal">
        <lane id=":1_23_0" index="0" disallow="pedestrian" speed="8.54" length="9.60" shape="1016.69,2096.93 1018.09,2098.05 1019.42,2101.43 1018.78,2105.56"/>
    </edge>
    <edge id=":1_24" function="internal">
        <lane id=":1_24_0" index="0" disallow="pedestrian" speed="3.65" length="2.34" shape="1010.72,2095.44 1010.14,2096.12 1008.78,2096.61"/>
    </edge>
    <edge id=":1_12" function="internal">
        <lane id=":1_12_0" index="0" disallow="pedestrian" speed="7.17" length="8.05" shape="1015.77,2104.47 1016.10,2101.86 1015.04,2099.68 1012.60,2097.93"/>
    </edge>
    <edge id=":1_13" function="internal">
        <lane id=":1_13_0" index="0" disallow="pedestrian" speed="13.89" length="17.46" shape="1015.77,2104.47 1017.24,2099.61 1017.48,2096.06 1016.73,2092.49 1015.22,2087.54"/>
    </edge>
    <edge id=":1_14" function="internal">
        <lane id=":1_14_0" index="0" disallow="pedestrian" speed="10.03" length="6.21" shape="1015.77,2104.47 1017.53,2100.81 1018.91,2099.16"/>
    </edge>
    <edge id=":1_15" function="internal">
        <lane id=":1_15_0" index="0" disallow="pedestrian" speed="3.65" length="2.34" shape="1015.77,2104.47 1016.93,2103.61 1017.82,2103.51"/>
    </edge>
    <edge id=":1_25" function="internal">
        <lane id=":1_25_0" index="0" disallow="pedestrian" speed="7.17" length="4.04" shape="1012.60,2097.93 1008.78,2096.61"/>
    </edge>
    <edge id=":1_26" function="internal">
        <lane id=":1_26_0" index="0" disallow="pedestrian" speed="10.03" length="8.36" shape="1018.91,2099.16 1019.84,2098.05 1022.69,2096.21 1026.09,2095.27"/>
    </edge>
    <edge id=":1_27" function="internal">
        <lane id=":1_27_0" index="0" disallow="pedestrian" speed="3.65" length="2.34" shape="1017.82,2103.51 1018.44,2104.16 1018.78,2105.56"/>
    </edge>
    <edge id=":1_c0" function="crossing" crossingEdges="3 -3">
        <lane id=":1_c0_0" index="0" allow="pedestrian" speed="1.00" length="6.40" width="4.00" shape="1023.89,2093.95 1024.73,2100.29"/>
    </edge>
    <edge id=":1_c1" function="crossing" crossingEdges="11 -11">
        <lane id=":1_c1_0" index="0" allow="pedestrian" speed="1.00" length="6.40" width="4.00" shape="1014.26,2089.91 1020.39,2088.09"/>
    </edge>
    <edge id=":1_c2" function="crossing" crossingEdges="35 -35">
        <lane id=":1_c2_0" index="0" allow="pedestrian" speed="1.00" length="6.40" width="4.00" shape="1010.34,2098.64 1011.87,2092.43"/>
    </edge>
    <edge id=":1_c3" function="crossing" crossingEdges="5 -5">
        <lane id=":1_c3_0" index="0" allow="pedestrian" speed="1.00" length="6.40" width="4.00" shape="1020.97,2104.22 1014.95,2102.05"/>
    </edge>
    <edge id=":1_w0" function="walkingarea">
        <lane id=":1_w0_0" index="0" allow="pedestrian" speed="1.00" length="5.24" width="4.00" shape="1020.29,2106.10 1022.17,2106.78 1026.97,2102.02 1026.71,2100.03 1025.30,2100.36 1024.02,2100.97 1022.88,2101.84 1021.88,2102.99 1021.02,2104.41"/>
    </edge>
    <edge id=":1_w1" function="walkingarea">
        <lane id=":1_w1_0" index="0" allow="pedestrian" speed="1.00" length="5.91" width="4.00" shape="1025.88,2093.69 1025.62,2091.70 1021.74,2085.60 1019.82,2086.17 1020.65,2088.60 1021.55,2090.56 1022.53,2092.05 1023.57,2093.07 1024.69,2093.61"/>
    </edge>
    <edge id=":1_w2" function="walkingarea">
        <lane id=":1_w2_0" index="0" allow="pedestrian" speed="1.00" length="3.36" width="4.00" shape="1013.69,2088.00 1011.77,2088.57 1010.40,2090.01 1009.92,2091.95 1011.51,2092.20 1012.71,2092.09 1013.53,2091.62 1013.97,2090.77 1014.02,2089.57"/>
    </edge>
    <edge id=":1_w3" function="walkingarea">
        <lane id=":1_w3_0" index="0" allow="pedestrian" speed="1.00" length="5.03" width="4.00" shape="1008.40,2098.17 1007.92,2100.11 1012.39,2103.25 1014.27,2103.93 1014.50,2102.67 1014.25,2101.52 1013.52,2100.50 1012.30,2099.60 1010.59,2098.82"/>
    </edge>
    <edge id=":10_0" function="internal">
        <lane id=":10_0_0" index="0" disallow="pedestrian" speed="13.04" length="13.25" shape="980.08,1969.52 978.70,1967.02 976.04,1964.43 972.10,1961.75 970.40,1960.85"/>
    </edge>
    <edge id=":10_1" function="internal">
        <lane id=":10_1_0" index="0" disallow="pedestrian" speed="13.89" length="19.57" shape="980.08,1969.52 974.48,1950.77"/>
    </edge>
    <edge id=":10_2" function="internal">
        <lane id=":10_2_0" index="0" disallow="pedestrian" speed="9.30" length="5.10" shape="980.08,1969.52 979.73,1966.22 980.25,1964.52"/>
    </edge>
    <edge id=":10_3" function="internal">
        <lane id=":10_3_0" index="0" disallow="pedestrian" speed="3.65" length="2.34" shape="980.08,1969.52 980.50,1968.14 981.15,1967.53"/>
    </edge>
    <edge id=":10_16" function="internal">
        <lane id=":10_16_0" index="0" disallow="pedestrian" speed="13.04" length="4.00" shape="970.40,1960.85 966.86,1958.98"/>
    </edge>
    <edge id=":10_17" function="internal">
        <lane id=":10_17_0" index="0" disallow="pedestrian" speed="9.30" length="9.95" shape="980.25,1964.52 980.70,1963.06 982.98,1960.02 986.58,1957.11"/>
    </edge>
    <edge id=":10_18" function="internal">
        <lane id=":10_18_0" index="0" disallow="pedestrian" speed="3.65" length="2.34" shape="981.15,1967.53 982.03,1967.68 983.14,1968.60"/>
    </edge>
    <edge id=":10_4" function="internal">
        <lane id=":10_4_0" index="0" disallow="pedestrian" speed="8.02" length="6.38" shape="988.36,1959.77 985.58,1961.96 983.78,1964.17"/>
    </edge>
    <edge id=":10_5" function="internal">
        <lane id=":10_5_0" index="0" disallow="pedestrian" speed="12.81" length="18.48" shape="988.36,1959.77 983.91,1961.80 978.84,1962.34 973.16,1961.40 970.61,1960.42"/>
    </edge>
    <edge id=":10_6" function="internal">
        <lane id=":10_6_0" index="0" disallow="pedestrian" speed="8.56" length="8.59" shape="988.36,1959.77 983.99,1961.54 980.23,1960.64"/>
    </edge>
    <edge id=":10_7" function="internal">
        <lane id=":10_7_0" index="0" disallow="pedestrian" speed="3.65" length="2.60" shape="988.36,1959.77 986.91,1959.77 986.14,1959.33 986.10,1959.07"/>
    </edge>
    <edge id=":10_19" function="internal">
        <lane id=":10_19_0" index="0" disallow="pedestrian" speed="8.02" length="4.59" shape="983.78,1964.17 982.97,1966.38 983.14,1968.60"/>
    </edge>
    <edge id=":10_20" function="internal">
        <lane id=":10_20_0" index="0" disallow="pedestrian" speed="12.81" length="4.01" shape="970.61,1960.42 966.86,1958.98"/>
    </edge>
    <edge id=":10_21" function="internal">
        <lane id=":10_21_0" index="0" disallow="pedestrian" speed="8.56" length="11.58" shape="980.23,1960.64 977.06,1957.04 974.48,1950.77"/>
    </edge>
    <edge id=":10_22" function="internal">
        <lane id=":10_22_0" index="0" disallow="pedestrian" speed="3.65" length="2.08" shape="986.10,1959.07 986.02,1958.44 986.58,1957.11"/>
    </edge>
    <edge id=":10_8" function="internal">
        <lane id=":10_8_0" index="0" disallow="pedestrian" speed="7.20" length="8.93" shape="977.55,1949.85 979.35,1954.46 981.46,1957.21 981.95,1957.39"/>
    </edge>
    <edge id=":10_9" function="internal">
        <lane id=":10_9_0" index="0" disallow="pedestrian" speed="13.89" length="19.57" shape="977.55,1949.85 983.14,1968.60"/>
    </edge>
    <edge id=":10_10" function="internal">
        <lane id=":10_10_0" index="0" disallow="pedestrian" speed="7.95" length="8.25" shape="977.55,1949.85 978.74,1956.65 978.28,1957.91"/>
    </edge>
    <edge id=":10_11" function="internal">
        <lane id=":10_11_0" index="0" disallow="pedestrian" speed="3.65" length="2.34" shape="977.55,1949.85 977.12,1951.23 976.47,1951.84"/>
    </edge>
    <edge id=":10_23" function="internal">
        <lane id=":10_23_0" index="0" disallow="pedestrian" speed="7.20" length="4.92" shape="981.95,1957.39 983.87,1958.09 986.58,1957.11"/>
    </edge>
    <edge id=":10_24" function="internal">
        <lane id=":10_24_0" index="0" disallow="pedestrian" speed="7.95" length="13.64" shape="978.28,1957.91 977.36,1960.45 973.40,1961.22 966.86,1958.98"/>
    </edge>
    <edge id=":10_25" function="internal">
        <lane id=":10_25_0" index="0" disallow="pedestrian" speed="3.65" length="2.34" shape="976.47,1951.84 975.59,1951.69 974.48,1950.77"/>
    </edge>
    <edge id=":10_12" function="internal">
        <lane id=":10_12_0" index="0" disallow="pedestrian" speed="6.22" length="1.17" shape="968.25,1956.10 969.35,1956.47"/>
    </edge>
    <edge id=":10_13" function="internal">
        <lane id=":10_13_0" index="0" disallow="pedestrian" speed="11.85" length="15.15" shape="968.25,1956.10 973.73,1958.24 978.61,1959.12 982.89,1958.74"/>
    </edge>
    <edge id=":10_14" function="internal">
        <lane id=":10_14_0" index="0" disallow="pedestrian" speed="13.89" length="8.22" shape="968.25,1956.10 974.06,1959.22 975.38,1960.15"/>
    </edge>
    <edge id=":10_15" function="internal">
        <lane id=":10_15_0" index="0" disallow="pedestrian" speed="3.65" length="2.19" shape="968.25,1956.10 968.98,1957.34 968.99,1958.09"/>
    </edge>
    <edge id=":10_26" function="internal">
        <lane id=":10_26_0" index="0" disallow="pedestrian" speed="6.22" length="11.61" shape="969.35,1956.47 972.06,1957.40 974.37,1956.95 975.18,1954.74 974.48,1950.77"/>
    </edge>
    <edge id=":10_27" function="internal">
        <lane id=":10_27_0" index="0" disallow="pedestrian" speed="11.85" length="4.03" shape="982.89,1958.74 986.58,1957.11"/>
    </edge>
    <edge id=":10_28" function="internal">
        <lane id=":10_28_0" index="0" disallow="pedestrian" speed="13.89" length="11.69" shape="975.38,1960.15 978.49,1962.34 981.51,1965.47 983.14,1968.60"/>
    </edge>
    <edge id=":10_29" function="internal">
        <lane id=":10_29_0" index="0" disallow="pedestrian" speed="3.65" length="2.48" shape="968.99,1958.09 969.00,1958.23 968.29,1958.78 966.86,1958.98"/>
    </edge>
    <edge id=":10_c0" function="crossing" crossingEdges="-11 11">
        <lane id=":10_c0_0" index="0" allow="pedestrian" speed="1.00" length="6.40" width="4.00" shape="984.11,1966.23 977.97,1968.06"/>
    </edge>
    <edge id=":10_c1" function="crossing" crossingEdges="154 -154">
        <lane id=":10_c1_0" index="0" allow="pedestrian" speed="1.00" length="6.40" width="4.00" shape="984.02,1956.89 987.58,1962.21"/>
    </edge>
    <edge id=":10_c2" function="crossing" crossingEdges="146 -146">
        <lane id=":10_c2_0" index="0" allow="pedestrian" speed="1.00" length="6.40" width="4.00" shape="973.52,1953.14 979.65,1951.31"/>
    </edge>
    <edge id=":10_c3" function="crossing" crossingEdges="140 -140">
        <lane id=":10_c3_0" index="0" allow="pedestrian" speed="1.00" length="6.40" width="4.00" shape="967.98,1961.29 970.74,1955.52"/>
    </edge>
    <edge id=":10_w0" function="walkingarea">
        <lane id=":10_w0_0" index="0" allow="pedestrian" speed="1.00" length="9.75" width="4.00" shape="966.17,1960.43 965.31,1962.23 976.63,1970.55 978.54,1969.97 977.85,1968.53 976.61,1967.03 974.82,1965.47 972.49,1963.85 969.60,1962.17"/>
    </edge>
    <edge id=":10_w1" function="walkingarea">
        <lane id=":10_w1_0" index="0" allow="pedestrian" speed="1.00" length="5.03" width="4.00" shape="984.68,1968.15 986.59,1967.58 990.36,1962.76 989.25,1961.10 987.57,1962.33 986.27,1963.53 985.32,1964.72 984.74,1965.88 984.53,1967.03"/>
    </edge>
    <edge id=":10_w2" function="walkingarea">
        <lane id=":10_w2_0" index="0" allow="pedestrian" speed="1.00" length="5.77" width="4.00" shape="985.69,1955.78 984.57,1954.12 981.00,1948.82 979.08,1949.39 980.01,1952.07 981.01,1954.10 982.08,1955.49 983.21,1956.23 984.41,1956.33"/>
    </edge>
    <edge id=":10_w3" function="walkingarea">
        <lane id=":10_w3_0" index="0" allow="pedestrian" speed="1.00" length="3.33" width="4.00" shape="972.95,1951.22 971.03,1951.80 969.80,1952.85 968.94,1954.65 970.68,1955.34 971.99,1955.52 972.88,1955.20 973.33,1954.38 973.35,1953.05"/>
    </edge>
    <edge id=":1055_0" function="internal">
        <lane id=":1055_0_0" index="0" disallow="pedestrian" speed="7.58" length="7.61" shape="1898.70,2413.80 1895.15,2413.00 1892.26,2413.26 1891.34,2413.81"/>
    </edge>
    <edge id=":1055_1" function="internal">
        <lane id=":1055_1_0" index="0" disallow="pedestrian" speed="13.89" length="17.42" shape="1898.70,2413.80 1882.13,2408.43"/>
    </edge>
    <edge id=":1055_2" function="internal">
        <lane id=":1055_2_0" index="0" disallow="pedestrian" speed="7.79" length="6.44" shape="1898.70,2413.80 1894.19,2411.53 1893.38,2410.40"/>
    </edge>
    <edge id=":1055_3" function="internal">
        <lane id=":1055_3_0" index="0" disallow="pedestrian" speed="3.65" length="2.34" shape="1898.70,2413.80 1897.82,2412.65 1897.70,2411.77"/>
    </edge>
    <edge id=":1055_16" function="internal">
        <lane id=":1055_16_0" index="0" disallow="pedestrian" speed="7.58" length="4.34" shape="1891.34,2413.81 1890.04,2414.58 1888.49,2416.94"/>
    </edge>
    <edge id=":1055_17" function="internal">
        <lane id=":1055_17_0" index="0" disallow="pedestrian" speed="7.79" length="10.86" shape="1893.38,2410.40 1892.10,2408.60 1892.41,2405.01 1895.15,2400.76"/>
    </edge>
    <edge id=":1055_18" function="internal">
        <lane id=":1055_18_0" index="0" disallow="pedestrian" speed="3.65" length="2.34" shape="1897.70,2411.77 1898.34,2411.14 1899.73,2410.77"/>
    </edge>
    <edge id=":1055_4" function="internal">
        <lane id=":1055_4_0" index="0" disallow="pedestrian" speed="6.21" length="6.26" shape="1897.57,2402.85 1895.91,2405.43 1895.72,2407.61 1896.30,2408.42"/>
    </edge>
    <edge id=":1055_5" function="internal">
        <lane id=":1055_5_0" index="0" disallow="pedestrian" speed="13.89" length="16.89" shape="1897.57,2402.85 1894.30,2406.65 1892.20,2409.38 1890.51,2412.38 1888.49,2416.94"/>
    </edge>
    <edge id=":1055_6" function="internal">
        <lane id=":1055_6_0" index="0" disallow="pedestrian" speed="10.57" length="7.70" shape="1897.57,2402.85 1893.98,2406.25 1891.56,2407.58"/>
    </edge>
    <edge id=":1055_7" function="internal">
        <lane id=":1055_7_0" index="0" disallow="pedestrian" speed="3.65" length="2.34" shape="1897.57,2402.85 1896.18,2403.24 1895.31,2403.02"/>
    </edge>
    <edge id=":1055_19" function="internal">
        <lane id=":1055_19_0" index="0" disallow="pedestrian" speed="6.21" length="4.25" shape="1896.30,2408.42 1896.99,2409.39 1899.73,2410.77"/>
    </edge>
    <edge id=":1055_20" function="internal">
        <lane id=":1055_20_0" index="0" disallow="pedestrian" speed="10.57" length="9.74" shape="1891.56,2407.58 1890.21,2408.32 1886.26,2409.05 1882.13,2408.43"/>
    </edge>
    <edge id=":1055_21" function="internal">
        <lane id=":1055_21_0" index="0" disallow="pedestrian" speed="3.65" length="2.34" shape="1895.31,2403.02 1894.97,2402.20 1895.15,2400.76"/>
    </edge>
    <edge id=":1055_8" function="internal">
        <lane id=":1055_8_0" index="0" disallow="pedestrian" speed="9.43" length="9.75" shape="1883.06,2405.37 1886.23,2405.82 1889.30,2405.20 1892.27,2403.51"/>
    </edge>
    <edge id=":1055_9" function="internal">
        <lane id=":1055_9_0" index="0" disallow="pedestrian" speed="13.89" length="17.52" shape="1883.06,2405.37 1899.73,2410.77"/>
    </edge>
    <edge id=":1055_10" function="internal">
        <lane id=":1055_10_0" index="0" disallow="pedestrian" speed="7.91" length="6.23" shape="1883.06,2405.37 1886.82,2407.14 1888.17,2408.71"/>
    </edge>
    <edge id=":1055_11" function="internal">
        <lane id=":1055_11_0" index="0" disallow="pedestrian" speed="3.65" length="2.34" shape="1883.06,2405.37 1883.97,2406.49 1884.13,2407.37"/>
    </edge>
    <edge id=":1055_22" function="internal">
        <lane id=":1055_22_0" index="0" disallow="pedestrian" speed="9.43" length="3.98" shape="1892.27,2403.51 1895.15,2400.76"/>
    </edge>
    <edge id=":1055_23" function="internal">
        <lane id=":1055_23_0" index="0" disallow="pedestrian" speed="7.91" length="8.72" shape="1888.17,2408.71 1888.98,2409.65 1889.54,2412.92 1888.49,2416.94"/>
    </edge>
    <edge id=":1055_24" function="internal">
        <lane id=":1055_24_0" index="0" disallow="pedestrian" speed="3.65" length="2.34" shape="1884.13,2407.37 1883.51,2408.02 1882.13,2408.43"/>
    </edge>
    <edge id=":1055_12" function="internal">
        <lane id=":1055_12_0" index="0" disallow="pedestrian" speed="6.40" length="5.10" shape="1885.54,2415.70 1886.20,2413.17 1885.85,2411.12 1885.59,2410.82"/>
    </edge>
    <edge id=":1055_13" function="internal">
        <lane id=":1055_13_0" index="0" disallow="pedestrian" speed="13.89" length="17.89" shape="1885.54,2415.70 1887.68,2410.86 1889.46,2407.69 1891.69,2404.79 1895.15,2400.76"/>
    </edge>
    <edge id=":1055_14" function="internal">
        <lane id=":1055_14_0" index="0" disallow="pedestrian" speed="8.90" length="6.03" shape="1885.54,2415.70 1887.77,2412.19 1889.34,2411.19"/>
    </edge>
    <edge id=":1055_15" function="internal">
        <lane id=":1055_15_0" index="0" disallow="pedestrian" speed="3.65" length="2.34" shape="1885.54,2415.70 1886.74,2414.91 1887.63,2414.85"/>
    </edge>
    <edge id=":1055_25" function="internal">
        <lane id=":1055_25_0" index="0" disallow="pedestrian" speed="6.40" length="4.29" shape="1885.59,2410.82 1884.49,2409.54 1882.13,2408.43"/>
    </edge>
    <edge id=":1055_26" function="internal">
        <lane id=":1055_26_0" index="0" disallow="pedestrian" speed="8.90" length="10.81" shape="1889.34,2411.19 1890.88,2410.20 1894.87,2409.73 1899.73,2410.77"/>
    </edge>
    <edge id=":1055_27" function="internal">
        <lane id=":1055_27_0" index="0" disallow="pedestrian" speed="3.65" length="2.34" shape="1887.63,2414.85 1888.21,2415.53 1888.49,2416.94"/>
    </edge>
    <edge id=":1055_c0" function="crossing" crossingEdges="4328 -4328">
        <lane id=":1055_c0_0" index="0" allow="pedestrian" speed="1.00" length="6.40" width="4.00" shape="1898.35,2408.61 1896.29,2414.67"/>
    </edge>
    <edge id=":1055_c1" function="crossing" crossingEdges="1126 -1126">
        <lane id=":1055_c1_0" index="0" allow="pedestrian" speed="1.00" length="6.40" width="4.00" shape="1892.63,2401.24 1897.48,2405.41"/>
    </edge>
    <edge id=":1055_c2" function="crossing" crossingEdges="-1056 1056">
        <lane id=":1055_c2_0" index="0" allow="pedestrian" speed="1.00" length="6.40" width="4.00" shape="1883.58,2410.55 1885.44,2404.42"/>
    </edge>
    <edge id=":1055_c3" function="crossing" crossingEdges="-1373 1373">
        <lane id=":1055_c3_0" index="0" allow="pedestrian" speed="1.00" length="6.40" width="4.00" shape="1890.74,2415.72 1884.84,2413.24"/>
    </edge>
    <edge id=":1055_w0" function="walkingarea">
        <lane id=":1055_w0_0" index="0" allow="pedestrian" speed="1.00" length="5.13" width="4.00" shape="1889.96,2417.56 1891.80,2418.34 1897.54,2417.21 1898.19,2415.31 1896.19,2414.78 1894.44,2414.60 1892.95,2414.79 1891.70,2415.35 1890.71,2416.28"/>
    </edge>
    <edge id=":1055_w1" function="walkingarea">
        <lane id=":1055_w1_0" index="0" allow="pedestrian" speed="1.00" length="3.36" width="4.00" shape="1900.24,2409.25 1900.89,2407.36 1900.30,2405.20 1898.78,2403.90 1897.92,2405.09 1897.51,2406.16 1897.53,2407.12 1897.99,2407.95 1898.90,2408.66"/>
    </edge>
    <edge id=":1055_w2" function="walkingarea">
        <lane id=":1055_w2_0" index="0" allow="pedestrian" speed="1.00" length="6.80" width="4.00" shape="1893.93,2399.72 1892.42,2398.42 1884.11,2401.93 1883.52,2403.84 1885.32,2404.19 1887.10,2404.12 1888.85,2403.64 1890.57,2402.74 1892.26,2401.44"/>
    </edge>
    <edge id=":1055_w3" function="walkingarea">
        <lane id=":1055_w3_0" index="0" allow="pedestrian" speed="1.00" length="3.32" width="4.00" shape="1881.66,2409.96 1881.08,2411.88 1882.22,2414.30 1884.06,2415.08 1884.45,2413.86 1884.52,2412.78 1884.28,2411.86 1883.72,2411.08 1882.85,2410.45"/>
    </edge>
    <edge id=":1063_0" function="internal">
        <lane id=":1063_0_0" index="0" disallow="pedestrian" speed="7.03" length="7.92" shape="1856.24,2210.35 1852.89,2207.62 1850.02,2206.48 1849.52,2206.57"/>
    </edge>
    <edge id=":1063_1" function="internal">
        <lane id=":1063_1_0" index="0" disallow="pedestrian" speed="13.89" length="23.92" shape="1856.24,2210.35 1851.59,2205.72 1847.85,2201.81 1844.25,2197.78 1840.00,2192.79"/>
    </edge>
    <edge id=":1063_2" function="internal">
        <lane id=":1063_2_0" index="0" disallow="pedestrian" speed="12.67" length="8.79" shape="1856.24,2210.35 1852.39,2205.59 1851.33,2203.13"/>
    </edge>
    <edge id=":1063_3" function="internal">
        <lane id=":1063_3_0" index="0" disallow="pedestrian" speed="7.84" length="7.62" shape="1856.24,2210.35 1852.44,2205.53 1852.21,2204.06"/>
    </edge>
    <edge id=":1063_4" function="internal">
        <lane id=":1063_4_0" index="0" disallow="pedestrian" speed="3.65" length="2.34" shape="1856.24,2210.35 1855.94,2208.93 1856.22,2208.08"/>
    </edge>
    <edge id=":1063_25" function="internal">
        <lane id=":1063_25_0" index="0" disallow="pedestrian" speed="7.03" length="4.72" shape="1849.52,2206.57 1847.62,2206.92 1845.70,2208.94"/>
    </edge>
    <edge id=":1063_26" function="internal">
        <lane id=":1063_26_0" index="0" disallow="pedestrian" speed="12.67" length="14.44" shape="1851.33,2203.13 1850.16,2200.45 1849.54,2194.94 1850.52,2189.05"/>
    </edge>
    <edge id=":1063_27" function="internal">
        <lane id=":1063_27_0" index="0" disallow="pedestrian" speed="7.84" length="12.39" shape="1852.21,2204.06 1851.86,2201.70 1854.50,2198.88 1860.36,2197.05"/>
    </edge>
    <edge id=":1063_28" function="internal">
        <lane id=":1063_28_0" index="0" disallow="pedestrian" speed="3.65" length="2.34" shape="1856.22,2208.08 1857.06,2207.79 1858.48,2208.06"/>
    </edge>
    <edge id=":1063_5" function="internal">
        <lane id=":1063_5_0" index="0" disallow="pedestrian" speed="6.18" length="7.70" shape="1860.92,2200.20 1857.45,2201.28 1855.89,2202.95 1856.16,2204.72"/>
    </edge>
    <edge id=":1063_6" function="internal">
        <lane id=":1063_6_0" index="0" disallow="pedestrian" speed="13.12" length="14.13" shape="1860.92,2200.20 1855.78,2201.49 1851.53,2203.38 1848.17,2205.86"/>
    </edge>
    <edge id=":1063_7" function="internal">
        <lane id=":1063_7_0" index="0" disallow="pedestrian" speed="12.93" length="19.27" shape="1860.92,2200.20 1854.81,2200.59 1849.29,2199.49 1844.35,2196.89 1842.94,2195.55"/>
    </edge>
    <edge id=":1063_8" function="internal">
        <lane id=":1063_8_0" index="0" disallow="pedestrian" speed="8.19" length="16.15" shape="1860.92,2200.20 1854.86,2200.47 1851.10,2198.70 1849.66,2194.89 1849.93,2193.05"/>
    </edge>
    <edge id=":1063_9" function="internal">
        <lane id=":1063_9_0" index="0" disallow="pedestrian" speed="3.65" length="4.67" shape="1860.92,2200.20 1859.60,2199.62 1859.06,2198.91 1859.31,2198.05 1860.36,2197.05"/>
    </edge>
    <edge id=":1063_29" function="internal">
        <lane id=":1063_29_0" index="0" disallow="pedestrian" speed="6.18" length="4.13" shape="1856.16,2204.72 1856.23,2205.21 1858.48,2208.06"/>
    </edge>
    <edge id=":1063_30" function="internal">
        <lane id=":1063_30_0" index="0" disallow="pedestrian" speed="13.12" length="3.95" shape="1848.17,2205.86 1845.70,2208.94"/>
    </edge>
    <edge id=":1063_31" function="internal">
        <lane id=":1063_31_0" index="0" disallow="pedestrian" speed="12.93" length="4.03" shape="1842.94,2195.55 1840.00,2192.79"/>
    </edge>
    <edge id=":1063_32" function="internal">
        <lane id=":1063_32_0" index="0" disallow="pedestrian" speed="8.19" length="4.04" shape="1849.93,2193.05 1850.52,2189.05"/>
    </edge>
    <edge id=":1063_10" function="internal">
        <lane id=":1063_10_0" index="0" disallow="pedestrian" speed="6.69" length="8.93" shape="1853.59,2189.96 1853.05,2193.68 1853.99,2196.11 1856.32,2197.18"/>
    </edge>
    <edge id=":1063_11" function="internal">
        <lane id=":1063_11_0" index="0" disallow="pedestrian" speed="11.72" length="15.74" shape="1853.59,2189.96 1852.76,2194.96 1853.30,2199.64 1855.20,2204.01 1855.95,2204.93"/>
    </edge>
    <edge id=":1063_12" function="internal">
        <lane id=":1063_12_0" index="0" disallow="pedestrian" speed="13.89" length="20.66" shape="1853.59,2189.96 1851.89,2195.76 1850.51,2199.83 1848.70,2203.71 1845.70,2208.94"/>
    </edge>
    <edge id=":1063_13" function="internal">
        <lane id=":1063_13_0" index="0" disallow="pedestrian" speed="7.83" length="7.40" shape="1853.59,2189.96 1851.18,2195.42 1850.04,2196.28"/>
    </edge>
    <edge id=":1063_14" function="internal">