<?xml version="1.0" encoding="UTF-8"?>

<!-- generated on Tue 31 Mar 2020 09:36:56 CEST by Eclipse SUMO netedit Version 1.4.0
<configuration xmlns:xsi="http://www.w3.org/2001/XMLSchema-instance" xsi:noNamespaceSchemaLocation="http://sumo.dlr.de/xsd/netconvertConfiguration.xsd">

    <input>
        <sumo-net-file value="/home/user/projects/random-activitygen-py/in/example_wavy.net.xml"/>
    </input>

    <output>
        <output-file value="/home/user/projects/random-activitygen-py/in/example_grid.net.xml"/>
    </output>

    <processing>
        <geometry.min-radius.fix.railways value="false"/>
        <geometry.max-grade.fix value="false"/>
        <offset.disable-normalization value="true"/>
        <lefthand value="false"/>
    </processing>

    <junctions>
        <no-turnarounds value="true"/>
        <junctions.corner-detail value="0"/>
        <junctions.limit-turn-speed value="-1"/>
        <rectangular-lane-cut value="false"/>
    </junctions>

    <pedestrian>
        <walkingareas value="false"/>
    </pedestrian>

    <report>
        <aggregate-warnings value="5"/>
    </report>

</configuration>
-->

<net version="1.3" xmlns:xsi="http://www.w3.org/2001/XMLSchema-instance" xsi:noNamespaceSchemaLocation="http://sumo.dlr.de/xsd/net_file.xsd">

    <location netOffset="0.00,0.00" convBoundary="0.00,0.00,1000.00,1000.00" origBoundary="0.00,0.00,1000.00,1000.00" projParameter="!"/>

    <edge id=":01_0" function="internal">
        <lane id=":01_0_0" index="0" speed="13.89" length="4.67" shape="-1.13,1.13 -1.41,-0.28 -1.13,-1.13 -0.28,-1.41 1.13,-1.13"/>
    </edge>
    <edge id=":11_0" function="internal">
        <lane id=":11_0_0" index="0" speed="13.89" length="12.44" shape="195.20,210.40 194.99,206.51 194.38,203.27 193.35,200.66 191.90,198.69"/>
    </edge>
    <edge id=":11_1" function="internal">
        <lane id=":11_1_0" index="0" speed="13.89" length="5.97" shape="198.40,210.40 199.15,205.15 199.49,204.58"/>
    </edge>
    <edge id=":11_2" function="internal">
        <lane id=":11_2_0" index="0" speed="13.89" length="2.22" shape="198.40,210.40 199.20,209.20 199.90,208.85"/>
    </edge>
    <edge id=":11_11" function="internal">
        <lane id=":11_11_0" index="0" speed="13.89" length="13.38" shape="199.49,204.58 201.40,201.40 205.15,199.15 210.40,198.40"/>
    </edge>
    <edge id=":11_12" function="internal">
        <lane id=":11_12_0" index="0" speed="13.89" length="2.45" shape="199.90,208.85 200.00,208.80 200.80,209.20 201.60,210.40"/>
    </edge>
    <edge id=":11_3" function="internal">
        <lane id=":11_3_0" index="0" speed="13.89" length="9.03" shape="210.40,204.80 207.95,205.15 206.20,206.20 205.15,207.95 204.80,210.40"/>
    </edge>
    <edge id=":11_4" function="internal">
        <lane id=":11_4_0" index="0" speed="13.89" length="19.96" shape="210.40,204.80 204.60,204.42 199.58,203.27 195.35,201.36 191.90,198.69"/>
    </edge>
    <edge id=":11_5" function="internal">
        <lane id=":11_5_0" index="0" speed="13.89" length="17.45" shape="210.40,201.60 205.24,201.28 200.81,200.31 197.12,198.69 194.17,196.43"/>
    </edge>
    <edge id=":11_6" function="internal">
        <lane id=":11_6_0" index="0" speed="13.89" length="4.67" shape="210.40,201.60 209.20,200.80 208.80,200.00 209.20,199.20 210.40,198.40"/>
    </edge>
    <edge id=":11_7" function="internal">
        <lane id=":11_7_0" index="0" speed="13.89" length="12.44" shape="198.69,191.90 200.66,193.35 203.27,194.38 206.51,194.99 210.40,195.20"/>
    </edge>
    <edge id=":11_8" function="internal">
        <lane id=":11_8_0" index="0" speed="13.89" length="14.95" shape="196.43,194.17 198.89,196.02 202.04,197.34 205.88,198.14 210.40,198.40"/>
    </edge>
    <edge id=":11_9" function="internal">
        <lane id=":11_9_0" index="0" speed="13.89" length="17.45" shape="196.43,194.17 198.69,197.12 200.31,200.81 201.28,205.24 201.60,210.40"/>
    </edge>
    <edge id=":11_10" function="internal">
        <lane id=":11_10_0" index="0" speed="13.89" length="2.34" shape="196.43,194.17 196.71,195.58 196.43,196.43"/>
    </edge>
    <edge id=":11_13" function="internal">
        <lane id=":11_13_0" index="0" speed="13.89" length="2.34" shape="196.43,196.43 195.58,196.71 194.17,196.43"/>
    </edge>
    <edge id=":12_0" function="internal">
        <lane id=":12_0_0" index="0" speed="13.89" length="20.80" shape="195.20,410.40 195.20,389.60"/>
        <lane id=":12_0_1" index="1" speed="13.89" length="20.80" shape="198.40,410.40 198.40,389.60"/>
    </edge>
    <edge id=":12_2" function="internal">
        <lane id=":12_2_0" index="0" speed="13.89" length="6.96" shape="198.40,410.40 199.15,405.15 200.00,403.73"/>
    </edge>
    <edge id=":12_3" function="internal">
        <lane id=":12_3_0" index="0" speed="13.89" length="2.34" shape="198.40,410.40 199.20,409.20 200.00,408.80"/>
    </edge>
    <edge id=":12_11" function="internal">
        <lane id=":12_11_0" index="0" speed="13.89" length="12.40" shape="200.00,403.73 201.40,401.40 205.15,399.15 210.40,398.40"/>
    </edge>
    <edge id=":12_12" function="internal">
        <lane id=":12_12_0" index="0" speed="13.89" length="2.34" shape="200.00,408.80 200.80,409.20 201.60,410.40"/>
    </edge>
    <edge id=":12_4" function="internal">
        <lane id=":12_4_0" index="0" speed="13.89" length="9.03" shape="210.40,404.80 207.95,405.15 206.20,406.20 205.15,407.95 204.80,410.40"/>
    </edge>
    <edge id=":12_5" function="internal">
        <lane id=":12_5_0" index="0" speed="13.89" length="19.35" shape="210.40,401.60 205.15,400.85 201.40,398.60 199.15,394.85 198.40,389.60"/>
    </edge>
    <edge id=":12_6" function="internal">
        <lane id=":12_6_0" index="0" speed="13.89" length="4.67" shape="210.40,401.60 209.20,400.80 208.80,400.00 209.20,399.20 210.40,398.40"/>
    </edge>
    <edge id=":12_7" function="internal">
        <lane id=":12_7_0" index="0" speed="13.89" length="9.03" shape="204.80,389.60 205.15,392.05 206.20,393.80 207.95,394.85 210.40,395.20"/>
    </edge>
    <edge id=":12_8" function="internal">
        <lane id=":12_8_0" index="0" speed="13.89" length="20.80" shape="204.80,389.60 204.80,410.40"/>
        <lane id=":12_8_1" index="1" speed="13.89" length="20.80" shape="201.60,389.60 201.60,410.40"/>
    </edge>
    <edge id=":12_10" function="internal">
        <lane id=":12_10_0" index="0" speed="13.89" length="2.34" shape="201.60,389.60 200.80,390.80 200.00,391.20"/>
    </edge>
    <edge id=":12_13" function="internal">
        <lane id=":12_13_0" index="0" speed="13.89" length="2.34" shape="200.00,391.20 199.20,390.80 198.40,389.60"/>
    </edge>
    <edge id=":13_0" function="internal">
        <lane id=":13_0_0" index="0" speed="13.89" length="20.80" shape="195.20,610.40 195.20,589.60"/>
        <lane id=":13_0_1" index="1" speed="13.89" length="20.80" shape="198.40,610.40 198.40,589.60"/>
    </edge>
    <edge id=":13_2" function="internal">
        <lane id=":13_2_0" index="0" speed="13.89" length="6.96" shape="198.40,610.40 199.15,605.15 200.00,603.73"/>
    </edge>
    <edge id=":13_3" function="internal">
        <lane id=":13_3_0" index="0" speed="13.89" length="2.34" shape="198.40,610.40 199.20,609.20 200.00,608.80"/>
    </edge>
    <edge id=":13_11" function="internal">
        <lane id=":13_11_0" index="0" speed="13.89" length="12.40" shape="200.00,603.73 201.40,601.40 205.15,599.15 210.40,598.40"/>
    </edge>
    <edge id=":13_12" function="internal">
        <lane id=":13_12_0" index="0" speed="13.89" length="2.34" shape="200.00,608.80 200.80,609.20 201.60,610.40"/>
    </edge>
    <edge id=":13_4" function="internal">
        <lane id=":13_4_0" index="0" speed="13.89" length="9.03" shape="210.40,604.80 207.95,605.15 206.20,606.20 205.15,607.95 204.80,610.40"/>
    </edge>
    <edge id=":13_5" function="internal">
        <lane id=":13_5_0" index="0" speed="13.89" length="19.35" shape="210.40,601.60 205.15,600.85 201.40,598.60 199.15,594.85 198.40,589.60"/>
    </edge>
    <edge id=":13_6" function="internal">
        <lane id=":13_6_0" index="0" speed="13.89" length="4.67" shape="210.40,601.60 209.20,600.80 208.80,600.00 209.20,599.20 210.40,598.40"/>
    </edge>
    <edge id=":13_7" function="internal">
        <lane id=":13_7_0" index="0" speed="13.89" length="9.03" shape="204.80,589.60 205.15,592.05 206.20,593.80 207.95,594.85 210.40,595.20"/>
    </edge>
    <edge id=":13_8" function="internal">
        <lane id=":13_8_0" index="0" speed="13.89" length="20.80" shape="204.80,589.60 204.80,610.40"/>
        <lane id=":13_8_1" index="1" speed="13.89" length="20.80" shape="201.60,589.60 201.60,610.40"/>
    </edge>
    <edge id=":13_10" function="internal">
        <lane id=":13_10_0" index="0" speed="13.89" length="2.34" shape="201.60,589.60 200.80,590.80 200.00,591.20"/>
    </edge>
    <edge id=":13_13" function="internal">
        <lane id=":13_13_0" index="0" speed="13.89" length="2.34" shape="200.00,591.20 199.20,590.80 198.40,589.60"/>
    </edge>
    <edge id=":14_0" function="internal">
        <lane id=":14_0_0" index="0" speed="13.89" length="18.06" shape="206.40,804.80 201.50,804.10 198.00,802.00 195.90,798.50 195.20,793.60"/>
    </edge>
    <edge id=":14_1" function="internal">
        <lane id=":14_1_0" index="0" speed="13.89" length="12.90" shape="206.40,801.60 202.90,801.10 200.40,799.60 198.90,797.10 198.40,793.60"/>
    </edge>
    <edge id=":14_2" function="internal">
        <lane id=":14_2_0" index="0" speed="13.89" length="2.56" shape="206.40,801.60 205.20,800.80 204.80,800.00 204.90,799.80"/>
    </edge>
    <edge id=":14_6" function="internal">
        <lane id=":14_6_0" index="0" speed="13.89" length="2.12" shape="204.90,799.80 205.20,799.20 206.40,798.40"/>
    </edge>
    <edge id=":14_3" function="internal">
        <lane id=":14_3_0" index="0" speed="13.89" length="2.58" shape="204.80,793.60 204.90,794.30 205.20,794.80 205.70,795.10 206.40,795.20"/>
    </edge>
    <edge id=":14_4" function="internal">
        <lane id=":14_4_0" index="0" speed="13.89" length="7.74" shape="201.60,793.60 201.90,795.70 202.80,797.20 204.30,798.10 206.40,798.40"/>
    </edge>
    <edge id=":14_5" function="internal">
        <lane id=":14_5_0" index="0" speed="13.89" length="2.08" shape="201.60,793.60 200.80,794.80 200.23,795.09"/>
    </edge>
    <edge id=":14_7" function="internal">
        <lane id=":14_7_0" index="0" speed="13.89" length="2.59" shape="200.23,795.09 200.00,795.20 199.20,794.80 198.40,793.60"/>
    </edge>
    <edge id=":21_0" function="internal">
        <lane id=":21_0_0" index="0" speed="13.89" length="9.03" shape="395.20,210.40 394.85,207.95 393.80,206.20 392.05,205.15 389.60,204.80"/>
    </edge>
    <edge id=":21_1" function="internal">
        <lane id=":21_1_0" index="0" speed="13.89" length="19.35" shape="398.40,210.40 399.15,205.15 401.40,201.40 405.15,199.15 410.40,198.40"/>
    </edge>
    <edge id=":21_2" function="internal">
        <lane id=":21_2_0" index="0" speed="13.89" length="4.67" shape="398.40,210.40 399.20,209.20 400.00,208.80 400.80,209.20 401.60,210.40"/>
    </edge>
    <edge id=":21_3" function="internal">
        <lane id=":21_3_0" index="0" speed="13.89" length="9.03" shape="410.40,204.80 407.95,205.15 406.20,206.20 405.15,207.95 404.80,210.40"/>
    </edge>
    <edge id=":21_4" function="internal">
        <lane id=":21_4_0" index="0" speed="13.89" length="20.80" shape="410.40,204.80 389.60,204.80"/>
        <lane id=":21_4_1" index="1" speed="13.89" length="20.80" shape="410.40,201.60 389.60,201.60"/>
    </edge>
    <edge id=":21_6" function="internal">
        <lane id=":21_6_0" index="0" speed="13.89" length="2.34" shape="410.40,201.60 409.20,200.80 408.80,200.00"/>
    </edge>
    <edge id=":21_11" function="internal">
        <lane id=":21_11_0" index="0" speed="13.89" length="2.34" shape="408.80,200.00 409.20,199.20 410.40,198.40"/>
    </edge>
    <edge id=":21_7" function="internal">
        <lane id=":21_7_0" index="0" speed="13.89" length="20.80" shape="389.60,195.20 410.40,195.20"/>
        <lane id=":21_7_1" index="1" speed="13.89" length="20.80" shape="389.60,198.40 410.40,198.40"/>
    </edge>
    <edge id=":21_9" function="internal">
        <lane id=":21_9_0" index="0" speed="13.89" length="6.96" shape="389.60,198.40 394.85,199.15 396.27,200.00"/>
    </edge>
    <edge id=":21_10" function="internal">
        <lane id=":21_10_0" index="0" speed="13.89" length="2.34" shape="389.60,198.40 390.80,199.20 391.20,200.00"/>
    </edge>
    <edge id=":21_12" function="internal">
        <lane id=":21_12_0" index="0" speed="13.89" length="12.40" shape="396.27,200.00 398.60,201.40 400.85,205.15 401.60,210.40"/>
    </edge>
    <edge id=":21_13" function="internal">
        <lane id=":21_13_0" index="0" speed="13.89" length="2.34" shape="391.20,200.00 390.80,200.80 389.60,201.60"/>
    </edge>
    <edge id=":22_0" function="internal">
        <lane id=":22_0_0" index="0" speed="13.89" length="9.03" shape="395.20,410.40 394.85,407.95 393.80,406.20 392.05,405.15 389.60,404.80"/>
    </edge>
    <edge id=":22_1" function="internal">
        <lane id=":22_1_0" index="0" speed="13.89" length="20.80" shape="395.20,410.40 395.20,389.60"/>
        <lane id=":22_1_1" index="1" speed="13.89" length="20.80" shape="398.40,410.40 398.40,389.60"/>
    </edge>
    <edge id=":22_3" function="internal">
        <lane id=":22_3_0" index="0" speed="13.89" length="6.96" shape="398.40,410.40 399.15,405.15 400.00,403.73"/>
    </edge>
    <edge id=":22_4" function="internal">
        <lane id=":22_4_0" index="0" speed="13.89" length="2.34" shape="398.40,410.40 399.20,409.20 400.00,408.80"/>
    </edge>
    <edge id=":22_18" function="internal">
        <lane id=":22_18_0" index="0" speed="13.89" length="12.40" shape="400.00,403.73 401.40,401.40 405.15,399.15 410.40,398.40"/>
    </edge>
    <edge id=":22_19" function="internal">
        <lane id=":22_19_0" index="0" speed="13.89" length="2.34" shape="400.00,408.80 400.80,409.20 401.60,410.40"/>
    </edge>
    <edge id=":22_5" function="internal">
        <lane id=":22_5_0" index="0" speed="13.89" length="9.03" shape="410.40,404.80 407.95,405.15 406.20,406.20 405.15,407.95 404.80,410.40"/>
    </edge>
    <edge id=":22_6" function="internal">
        <lane id=":22_6_0" index="0" speed="13.89" length="20.80" shape="410.40,401.60 389.60,401.60"/>
    </edge>
    <edge id=":22_7" function="internal">
        <lane id=":22_7_0" index="0" speed="13.89" length="19.35" shape="410.40,401.60 405.15,400.85 401.40,398.60 399.15,394.85 398.40,389.60"/>
    </edge>
    <edge id=":22_8" function="internal">
        <lane id=":22_8_0" index="0" speed="13.89" length="4.67" shape="410.40,401.60 409.20,400.80 408.80,400.00 409.20,399.20 410.40,398.40"/>
    </edge>
    <edge id=":22_9" function="internal">
        <lane id=":22_9_0" index="0" speed="13.89" length="9.03" shape="404.80,389.60 405.15,392.05 406.20,393.80 407.95,394.85 410.40,395.20"/>
    </edge>
    <edge id=":22_10" function="internal">
        <lane id=":22_10_0" index="0" speed="13.89" length="20.80" shape="404.80,389.60 404.80,410.40"/>
        <lane id=":22_10_1" index="1" speed="13.89" length="20.80" shape="401.60,389.60 401.60,410.40"/>
    </edge>
    <edge id=":22_12" function="internal">
        <lane id=":22_12_0" index="0" speed="13.89" length="6.96" shape="401.60,389.60 400.85,394.85 400.00,396.27"/>
    </edge>
    <edge id=":22_13" function="internal">
        <lane id=":22_13_0" index="0" speed="13.89" length="2.34" shape="401.60,389.60 400.80,390.80 400.00,391.20"/>
    </edge>
    <edge id=":22_20" function="internal">
        <lane id=":22_20_0" index="0" speed="13.89" length="12.40" shape="400.00,396.27 398.60,398.60 394.85,400.85 389.60,401.60"/>
    </edge>
    <edge id=":22_21" function="internal">
        <lane id=":22_21_0" index="0" speed="13.89" length="2.34" shape="400.00,391.20 399.20,390.80 398.40,389.60"/>
    </edge>
    <edge id=":22_14" function="internal">
        <lane id=":22_14_0" index="0" speed="13.89" length="9.03" shape="389.60,395.20 392.05,394.85 393.80,393.80 394.85,392.05 395.20,389.60"/>
    </edge>
    <edge id=":22_15" function="internal">
        <lane id=":22_15_0" index="0" speed="13.89" length="20.80" shape="389.60,398.40 410.40,398.40"/>
    </edge>
    <edge id=":22_16" function="internal">
        <lane id=":22_16_0" index="0" speed="13.89" length="19.35" shape="389.60,398.40 394.85,399.15 398.60,401.40 400.85,405.15 401.60,410.40"/>
    </edge>
    <edge id=":22_17" function="internal">
        <lane id=":22_17_0" index="0" speed="13.89" length="4.67" shape="389.60,398.40 390.80,399.20 391.20,400.00 390.80,400.80 389.60,401.60"/>
    </edge>
    <edge id=":23_0" function="internal">
        <lane id=":23_0_0" index="0" speed="13.89" length="9.03" shape="395.20,610.40 394.85,607.95 393.80,606.20 392.05,605.15 389.60,604.80"/>
    </edge>
    <edge id=":23_1" function="internal">
        <lane id=":23_1_0" index="0" speed="13.89" length="20.80" shape="395.20,610.40 395.20,589.60"/>
        <lane id=":23_1_1" index="1" speed="13.89" length="20.80" shape="398.40,610.40 398.40,589.60"/>
    </edge>
    <edge id=":23_3" function="internal">
        <lane id=":23_3_0" index="0" speed="13.89" length="6.96" shape="398.40,610.40 399.15,605.15 400.00,603.73"/>
    </edge>
    <edge id=":23_4" function="internal">
        <lane id=":23_4_0" index="0" speed="13.89" length="2.34" shape="398.40,610.40 399.20,609.20 400.00,608.80"/>
    </edge>
    <edge id=":23_18" function="internal">
        <lane id=":23_18_0" index="0" speed="13.89" length="12.40" shape="400.00,603.73 401.40,601.40 405.15,599.15 410.40,598.40"/>
    </edge>
    <edge id=":23_19" function="internal">
        <lane id=":23_19_0" index="0" speed="13.89" length="2.34" shape="400.00,608.80 400.80,609.20 401.60,610.40"/>
    </edge>
    <edge id=":23_5" function="internal">
        <lane id=":23_5_0" index="0" speed="13.89" length="9.03" shape="410.40,604.80 407.95,605.15 406.20,606.20 405.15,607.95 404.80,610.40"/>
    </edge>
    <edge id=":23_6" function="internal">
        <lane id=":23_6_0" index="0" speed="13.89" length="20.80" shape="410.40,601.60 389.60,601.60"/>
    </edge>
    <edge id=":23_7" function="internal">
        <lane id=":23_7_0" index="0" speed="13.89" length="19.35" shape="410.40,601.60 405.15,600.85 401.40,598.60 399.15,594.85 398.40,589.60"/>
    </edge>
    <edge id=":23_8" function="internal">
        <lane id=":23_8_0" index="0" speed="13.89" length="4.67" shape="410.40,601.60 409.20,600.80 408.80,600.00 409.20,599.20 410.40,598.40"/>
    </edge>
    <edge id=":23_9" function="internal">
        <lane id=":23_9_0" index="0" speed="13.89" length="9.03" shape="404.80,589.60 405.15,592.05 406.20,593.80 407.95,594.85 410.40,595.20"/>
    </edge>
    <edge id=":23_10" function="internal">
        <lane id=":23_10_0" index="0" speed="13.89" length="20.80" shape="404.80,589.60 404.80,610.40"/>
        <lane id=":23_10_1" index="1" speed="13.89" length="20.80" shape="401.60,589.60 401.60,610.40"/>
    </edge>
    <edge id=":23_12" function="internal">
        <lane id=":23_12_0" index="0" speed="13.89" length="6.96" shape="401.60,589.60 400.85,594.85 400.00,596.27"/>
    </edge>
    <edge id=":23_13" function="internal">
        <lane id=":23_13_0" index="0" speed="13.89" length="2.34" shape="401.60,589.60 400.80,590.80 400.00,591.20"/>
    </edge>
    <edge id=":23_20" function="internal">
        <lane id=":23_20_0" index="0" speed="13.89" length="12.40" shape="400.00,596.27 398.60,598.60 394.85,600.85 389.60,601.60"/>
    </edge>
    <edge id=":23_21" function="internal">
        <lane id=":23_21_0" index="0" speed="13.89" length="2.34" shape="400.00,591.20 399.20,590.80 398.40,589.60"/>
    </edge>
    <edge id=":23_14" function="internal">
        <lane id=":23_14_0" index="0" speed="13.89" length="9.03" shape="389.60,595.20 392.05,594.85 393.80,593.80 394.85,592.05 395.20,589.60"/>
    </edge>
    <edge id=":23_15" function="internal">
        <lane id=":23_15_0" index="0" speed="13.89" length="20.80" shape="389.60,598.40 410.40,598.40"/>
    </edge>
    <edge id=":23_16" function="internal">
        <lane id=":23_16_0" index="0" speed="13.89" length="19.35" shape="389.60,598.40 394.85,599.15 398.60,601.40 400.85,605.15 401.60,610.40"/>
    </edge>
    <edge id=":23_17" function="internal">
        <lane id=":23_17_0" index="0" speed="13.89" length="4.67" shape="389.60,598.40 390.80,599.20 391.20,600.00 390.80,600.80 389.60,601.60"/>
    </edge>
    <edge id=":24_0" function="internal">
        <lane id=":24_0_0" index="0" speed="13.89" length="20.80" shape="410.40,804.80 389.60,804.80"/>
        <lane id=":24_0_1" index="1" speed="13.89" length="20.80" shape="410.40,801.60 389.60,801.60"/>
    </edge>
    <edge id=":24_2" function="internal">
        <lane id=":24_2_0" index="0" speed="13.89" length="6.96" shape="410.40,801.60 405.15,800.85 403.73,800.00"/>
    </edge>
    <edge id=":24_3" function="internal">
        <lane id=":24_3_0" index="0" speed="13.89" length="2.34" shape="410.40,801.60 409.20,800.80 408.80,800.00"/>
    </edge>
    <edge id=":24_11" function="internal">
        <lane id=":24_11_0" index="0" speed="13.89" length="12.40" shape="403.73,800.00 401.40,798.60 399.15,794.85 398.40,789.60"/>
    </edge>
    <edge id=":24_12" function="internal">
        <lane id=":24_12_0" index="0" speed="13.89" length="2.34" shape="408.80,800.00 409.20,799.20 410.40,798.40"/>
    </edge>
    <edge id=":24_4" function="internal">
        <lane id=":24_4_0" index="0" speed="13.89" length="9.03" shape="404.80,789.60 405.15,792.05 406.20,793.80 407.95,794.85 410.40,795.20"/>
    </edge>
    <edge id=":24_5" function="internal">
        <lane id=":24_5_0" index="0" speed="13.89" length="19.35" shape="401.60,789.60 400.85,794.85 398.60,798.60 394.85,800.85 389.60,801.60"/>
    </edge>
    <edge id=":24_6" function="internal">
        <lane id=":24_6_0" index="0" speed="13.89" length="4.67" shape="401.60,789.60 400.80,790.80 400.00,791.20 399.20,790.80 398.40,789.60"/>
    </edge>
    <edge id=":24_7" function="internal">
        <lane id=":24_7_0" index="0" speed="13.89" length="9.03" shape="389.60,795.20 392.05,794.85 393.80,793.80 394.85,792.05 395.20,789.60"/>
    </edge>
    <edge id=":24_8" function="internal">
        <lane id=":24_8_0" index="0" speed="13.89" length="20.80" shape="389.60,795.20 410.40,795.20"/>
        <lane id=":24_8_1" index="1" speed="13.89" length="20.80" shape="389.60,798.40 410.40,798.40"/>
    </edge>
    <edge id=":24_10" function="internal">
        <lane id=":24_10_0" index="0" speed="13.89" length="2.34" shape="389.60,798.40 390.80,799.20 391.20,800.00"/>
    </edge>
    <edge id=":24_13" function="internal">
        <lane id=":24_13_0" index="0" speed="13.89" length="2.34" shape="391.20,800.00 390.80,800.80 389.60,801.60"/>
    </edge>
    <edge id=":31_0" function="internal">
        <lane id=":31_0_0" index="0" speed="13.89" length="9.03" shape="595.20,210.40 594.85,207.95 593.80,206.20 592.05,205.15 589.60,204.80"/>
    </edge>
    <edge id=":31_1" function="internal">
        <lane id=":31_1_0" index="0" speed="13.89" length="19.35" shape="598.40,210.40 599.15,205.15 601.40,201.40 605.15,199.15 610.40,198.40"/>
    </edge>
    <edge id=":31_2" function="internal">
        <lane id=":31_2_0" index="0" speed="13.89" length="4.67" shape="598.40,210.40 599.20,209.20 600.00,208.80 600.80,209.20 601.60,210.40"/>
    </edge>
    <edge id=":31_3" function="internal">
        <lane id=":31_3_0" index="0" speed="13.89" length="9.03" shape="610.40,204.80 607.95,205.15 606.20,206.20 605.15,207.95 604.80,210.40"/>
    </edge>
    <edge id=":31_4" function="internal">
        <lane id=":31_4_0" index="0" speed="13.89" length="20.80" shape="610.40,204.80 589.60,204.80"/>
        <lane id=":31_4_1" index="1" speed="13.89" length="20.80" shape="610.40,201.60 589.60,201.60"/>
    </edge>
    <edge id=":31_6" function="internal">
        <lane id=":31_6_0" index="0" speed="13.89" length="2.34" shape="610.40,201.60 609.20,200.80 608.80,200.00"/>
    </edge>
    <edge id=":31_11" function="internal">
        <lane id=":31_11_0" index="0" speed="13.89" length="2.34" shape="608.80,200.00 609.20,199.20 610.40,198.40"/>
    </edge>
    <edge id=":31_7" function="internal">
        <lane id=":31_7_0" index="0" speed="13.89" length="20.80" shape="589.60,195.20 610.40,195.20"/>
        <lane id=":31_7_1" index="1" speed="13.89" length="20.80" shape="589.60,198.40 610.40,198.40"/>
    </edge>
    <edge id=":31_9" function="internal">
        <lane id=":31_9_0" index="0" speed="13.89" length="6.96" shape="589.60,198.40 594.85,199.15 596.27,200.00"/>
    </edge>
    <edge id=":31_10" function="internal">
        <lane id=":31_10_0" index="0" speed="13.89" length="2.34" shape="589.60,198.40 590.80,199.20 591.20,200.00"/>
    </edge>
    <edge id=":31_12" function="internal">
        <lane id=":31_12_0" index="0" speed="13.89" length="12.40" shape="596.27,200.00 598.60,201.40 600.85,205.15 601.60,210.40"/>
    </edge>
    <edge id=":31_13" function="internal">
        <lane id=":31_13_0" index="0" speed="13.89" length="2.34" shape="591.20,200.00 590.80,200.80 589.60,201.60"/>
    </edge>
    <edge id=":32_0" function="internal">
        <lane id=":32_0_0" index="0" speed="13.89" length="9.03" shape="595.20,410.40 594.85,407.95 593.80,406.20 592.05,405.15 589.60,404.80"/>
    </edge>
    <edge id=":32_1" function="internal">
        <lane id=":32_1_0" index="0" speed="13.89" length="20.80" shape="595.20,410.40 595.20,389.60"/>
        <lane id=":32_1_1" index="1" speed="13.89" length="20.80" shape="598.40,410.40 598.40,389.60"/>
    </edge>
    <edge id=":32_3" function="internal">
        <lane id=":32_3_0" index="0" speed="13.89" length="6.96" shape="598.40,410.40 599.15,405.15 600.00,403.73"/>
    </edge>
    <edge id=":32_4" function="internal">
        <lane id=":32_4_0" index="0" speed="13.89" length="2.34" shape="598.40,410.40 599.20,409.20 600.00,408.80"/>
    </edge>
    <edge id=":32_18" function="internal">
        <lane id=":32_18_0" index="0" speed="13.89" length="12.40" shape="600.00,403.73 601.40,401.40 605.15,399.15 610.40,398.40"/>
    </edge>
    <edge id=":32_19" function="internal">
        <lane id=":32_19_0" index="0" speed="13.89" length="2.34" shape="600.00,408.80 600.80,409.20 601.60,410.40"/>
    </edge>
    <edge id=":32_5" function="internal">
        <lane id=":32_5_0" index="0" speed="13.89" length="9.03" shape="610.40,404.80 607.95,405.15 606.20,406.20 605.15,407.95 604.80,410.40"/>
    </edge>
    <edge id=":32_6" function="internal">
        <lane id=":32_6_0" index="0" speed="13.89" length="20.80" shape="610.40,401.60 589.60,401.60"/>
    </edge>
    <edge id=":32_7" function="internal">
        <lane id=":32_7_0" index="0" speed="13.89" length="19.35" shape="610.40,401.60 605.15,400.85 601.40,398.60 599.15,394.85 598.40,389.60"/>
    </edge>
    <edge id=":32_8" function="internal">
        <lane id=":32_8_0" index="0" speed="13.89" length="4.67" shape="610.40,401.60 609.20,400.80 608.80,400.00 609.20,399.20 610.40,398.40"/>
    </edge>
    <edge id=":32_9" function="internal">
        <lane id=":32_9_0" index="0" speed="13.89" length="9.03" shape="604.80,389.60 605.15,392.05 606.20,393.80 607.95,394.85 610.40,395.20"/>
    </edge>
    <edge id=":32_10" function="internal">
        <lane id=":32_10_0" index="0" speed="13.89" length="20.80" shape="604.80,389.60 604.80,410.40"/>
        <lane id=":32_10_1" index="1" speed="13.89" length="20.80" shape="601.60,389.60 601.60,410.40"/>
    </edge>
    <edge id=":32_12" function="internal">
        <lane id=":32_12_0" index="0" speed="13.89" length="6.96" shape="601.60,389.60 600.85,394.85 600.00,396.27"/>
    </edge>
    <edge id=":32_13" function="internal">
        <lane id=":32_13_0" index="0" speed="13.89" length="2.34" shape="601.60,389.60 600.80,390.80 600.00,391.20"/>
    </edge>
    <edge id=":32_20" function="internal">
        <lane id=":32_20_0" index="0" speed="13.89" length="12.40" shape="600.00,396.27 598.60,398.60 594.85,400.85 589.60,401.60"/>
    </edge>
    <edge id=":32_21" function="internal">
        <lane id=":32_21_0" index="0" speed="13.89" length="2.34" shape="600.00,391.20 599.20,390.80 598.40,389.60"/>
    </edge>
    <edge id=":32_14" function="internal">
        <lane id=":32_14_0" index="0" speed="13.89" length="9.03" shape="589.60,395.20 592.05,394.85 593.80,393.80 594.85,392.05 595.20,389.60"/>
    </edge>
    <edge id=":32_15" function="internal">
        <lane id=":32_15_0" index="0" speed="13.89" length="20.80" shape="589.60,398.40 610.40,398.40"/>
    </edge>
    <edge id=":32_16" function="internal">
        <lane id=":32_16_0" index="0" speed="13.89" length="19.35" shape="589.60,398.40 594.85,399.15 598.60,401.40 600.85,405.15 601.60,410.40"/>
    </edge>
    <edge id=":32_17" function="internal">
        <lane id=":32_17_0" index="0" speed="13.89" length="4.67" shape="589.60,398.40 590.80,399.20 591.20,400.00 590.80,400.80 589.60,401.60"/>
    </edge>
    <edge id=":33_0" function="internal">
        <lane id=":33_0_0" index="0" speed="13.89" length="9.03" shape="595.20,610.40 594.85,607.95 593.80,606.20 592.05,605.15 589.60,604.80"/>
    </edge>
    <edge id=":33_1" function="internal">
        <lane id=":33_1_0" index="0" speed="13.89" length="20.80" shape="595.20,610.40 595.20,589.60"/>
        <lane id=":33_1_1" index="1" speed="13.89" length="20.80" shape="598.40,610.40 598.40,589.60"/>
    </edge>
    <edge id=":33_3" function="internal">
        <lane id=":33_3_0" index="0" speed="13.89" length="6.96" shape="598.40,610.40 599.15,605.15 600.00,603.73"/>
    </edge>
    <edge id=":33_4" function="internal">
        <lane id=":33_4_0" index="0" speed="13.89" length="2.34" shape="598.40,610.40 599.20,609.20 600.00,608.80"/>
    </edge>