<?xml version="1.0" encoding="UTF-8"?>

<!-- generated on 04/08/20 11:44:49 by Eclipse SUMO netgenerate Version 1.5.0
<configuration xmlns:xsi="http://www.w3.org/2001/XMLSchema-instance" xsi:noNamespaceSchemaLocation="http://sumo.dlr.de/xsd/netgenerateConfiguration.xsd">

    <random_network>
        <rand value="true"/>
        <rand.iterations value="300"/>
    </random_network>

    <output>
        <output-file value="example.net.xml"/>
    </output>

    <processing>
        <roundabouts.guess value="true"/>
    </processing>

    <tls_building>
        <tls.guess value="true"/>
        <tls.guess.threshold value="50"/>
    </tls_building>

    <pedestrian>
        <sidewalks.guess value="true"/>
        <crossings.guess value="true"/>
    </pedestrian>

    <random_number>
        <random value="true"/>
    </random_number>

</configuration>
-->

<net version="1.3" junctionCornerDetail="5" walkingareas="true" limitTurnSpeed="5.50" xmlns:xsi="http://www.w3.org/2001/XMLSchema-instance" xsi:noNamespaceSchemaLocation="http://sumo.dlr.de/xsd/net_file.xsd">

    <location netOffset="2080.16,1183.96" convBoundary="0.00,0.00,4343.00,3176.11" origBoundary="-2080.16,-1183.96,2262.84,1992.15" projParameter="!"/>

    <edge id=":1_0" function="internal">
        <lane id=":1_0_0" index="0" disallow="pedestrian" speed="10.05" length="12.67" shape="2092.45,1190.68 2087.00,1188.87 2082.51,1188.26 2080.15,1188.65"/>
    </edge>
    <edge id=":1_1" function="internal">
        <lane id=":1_1_0" index="0" disallow="pedestrian" speed="13.89" length="21.81" shape="2092.45,1190.68 2086.65,1188.38 2082.33,1186.53 2078.27,1184.22 2073.26,1180.56"/>
    </edge>
    <edge id=":1_2" function="internal">
        <lane id=":1_2_0" index="0" disallow="pedestrian" speed="7.97" length="8.23" shape="2092.45,1190.68 2086.32,1187.31 2085.68,1186.25"/>
    </edge>
    <edge id=":1_3" function="internal">
        <lane id=":1_3_0" index="0" disallow="pedestrian" speed="3.65" length="2.34" shape="2092.45,1190.68 2091.64,1189.48 2091.57,1188.59"/>
    </edge>
    <edge id=":1_16" function="internal">
        <lane id=":1_16_0" index="0" disallow="pedestrian" speed="10.05" length="4.36" shape="2080.15,1188.65 2078.96,1188.85 2076.36,1190.64"/>
    </edge>
    <edge id=":1_17" function="internal">
        <lane id=":1_17_0" index="0" disallow="pedestrian" speed="7.97" length="13.85" shape="2085.68,1186.25 2084.22,1183.85 2086.14,1180.29 2092.09,1176.62"/>
    </edge>
    <edge id=":1_18" function="internal">
        <lane id=":1_18_0" index="0" disallow="pedestrian" speed="3.65" length="2.34" shape="2091.57,1188.59 2092.24,1188.00 2093.65,1187.71"/>
    </edge>
    <edge id=":1_4" function="internal">
        <lane id=":1_4_0" index="0" disallow="pedestrian" speed="6.23" length="1.22" shape="2093.44,1179.51 2092.41,1180.15"/>
    </edge>
    <edge id=":1_5" function="internal">
        <lane id=":1_5_0" index="0" disallow="pedestrian" speed="13.89" length="20.65" shape="2093.44,1179.51 2087.89,1181.99 2084.00,1183.86 2080.56,1186.34 2076.36,1190.64"/>
    </edge>
    <edge id=":1_6" function="internal">
        <lane id=":1_6_0" index="0" disallow="pedestrian" speed="11.95" length="10.92" shape="2093.44,1179.51 2087.12,1181.95 2083.04,1182.68"/>
    </edge>
    <edge id=":1_7" function="internal">
        <lane id=":1_7_0" index="0" disallow="pedestrian" speed="3.65" length="2.34" shape="2093.44,1179.51 2092.02,1179.30 2091.32,1178.74"/>
    </edge>
    <edge id=":1_19" function="internal">
        <lane id=":1_19_0" index="0" disallow="pedestrian" speed="6.23" length="11.66" shape="2092.41,1180.15 2089.98,1181.65 2088.86,1183.73 2090.08,1185.75 2093.65,1187.71"/>
    </edge>
    <edge id=":1_20" function="internal">
        <lane id=":1_20_0" index="0" disallow="pedestrian" speed="11.95" length="10.28" shape="2083.04,1182.68 2081.65,1182.93 2077.03,1182.47 2073.26,1180.56"/>
    </edge>
    <edge id=":1_21" function="internal">
        <lane id=":1_21_0" index="0" disallow="pedestrian" speed="3.65" length="2.34" shape="2091.32,1178.74 2091.34,1177.85 2092.09,1176.62"/>
    </edge>
    <edge id=":1_8" function="internal">
        <lane id=":1_8_0" index="0" disallow="pedestrian" speed="10.95" length="13.68" shape="2075.24,1178.05 2078.22,1179.47 2082.02,1179.71 2086.65,1178.76 2088.36,1178.08"/>
    </edge>
    <edge id=":1_9" function="internal">
        <lane id=":1_9_0" index="0" disallow="pedestrian" speed="13.89" length="20.92" shape="2075.24,1178.05 2080.13,1181.64 2083.92,1183.79 2087.97,1185.48 2093.65,1187.71"/>
    </edge>
    <edge id=":1_10" function="internal">
        <lane id=":1_10_0" index="0" disallow="pedestrian" speed="7.95" length="5.62" shape="2075.24,1178.05 2078.03,1180.97 2078.57,1182.45"/>
    </edge>
    <edge id=":1_11" function="internal">
        <lane id=":1_11_0" index="0" disallow="pedestrian" speed="3.65" length="2.34" shape="2075.24,1178.05 2075.69,1179.42 2075.51,1180.29"/>
    </edge>
    <edge id=":1_22" function="internal">
        <lane id=":1_22_0" index="0" disallow="pedestrian" speed="10.95" length="4.01" shape="2088.36,1178.08 2092.09,1176.62"/>
    </edge>
    <edge id=":1_23" function="internal">
        <lane id=":1_23_0" index="0" disallow="pedestrian" speed="7.95" length="9.00" shape="2078.57,1182.45 2079.15,1184.05 2078.59,1187.27 2076.36,1190.64"/>
    </edge>
    <edge id=":1_24" function="internal">
        <lane id=":1_24_0" index="0" disallow="pedestrian" speed="3.65" length="2.34" shape="2075.51,1180.29 2074.70,1180.67 2073.26,1180.56"/>
    </edge>
    <edge id=":1_12" function="internal">
        <lane id=":1_12_0" index="0" disallow="pedestrian" speed="6.44" length="4.95" shape="2073.97,1188.51 2075.38,1186.39 2075.73,1184.35 2075.62,1184.04"/>
    </edge>
    <edge id=":1_13" function="internal">
        <lane id=":1_13_0" index="0" disallow="pedestrian" speed="13.89" length="21.93" shape="2073.97,1188.51 2078.33,1184.10 2082.12,1181.35 2086.37,1179.21 2092.09,1176.62"/>
    </edge>
    <edge id=":1_14" function="internal">
        <lane id=":1_14_0" index="0" disallow="pedestrian" speed="11.11" length="5.84" shape="2073.97,1188.51 2077.36,1186.04 2078.96,1185.69"/>
    </edge>
    <edge id=":1_15" function="internal">
        <lane id=":1_15_0" index="0" disallow="pedestrian" speed="3.65" length="2.34" shape="2073.97,1188.51 2075.37,1188.15 2076.23,1188.38"/>
    </edge>
    <edge id=":1_25" function="internal">
        <lane id=":1_25_0" index="0" disallow="pedestrian" speed="6.44" length="4.29" shape="2075.62,1184.04 2075.02,1182.41 2073.26,1180.56"/>
    </edge>
    <edge id=":1_26" function="internal">
        <lane id=":1_26_0" index="0" disallow="pedestrian" speed="11.11" length="15.11" shape="2078.96,1185.69 2081.77,1185.08 2087.20,1185.64 2093.65,1187.71"/>
    </edge>
    <edge id=":1_27" function="internal">
        <lane id=":1_27_0" index="0" disallow="pedestrian" speed="3.65" length="2.34" shape="2076.23,1188.38 2076.56,1189.21 2076.36,1190.64"/>
    </edge>
    <edge id=":1_c0" function="crossing" crossingEdges="11 -11">
        <lane id=":1_c0_0" index="0" allow="pedestrian" speed="1.00" length="6.40" width="4.00" shape="2092.40,1185.48 2089.99,1191.40"/>
    </edge>
    <edge id=":1_c1" function="crossing" crossingEdges="5 -5">
        <lane id=":1_c1_0" index="0" allow="pedestrian" speed="1.00" length="6.40" width="4.00" shape="2089.60,1176.01 2092.31,1181.81"/>
    </edge>
    <edge id=":1_c2" function="crossing" crossingEdges="3 -3">
        <lane id=":1_c2_0" index="0" allow="pedestrian" speed="1.00" length="6.40" width="4.00" shape="2073.85,1183.06 2077.80,1178.03"/>
    </edge>
    <edge id=":1_c3" function="crossing" crossingEdges="19 -19">
        <lane id=":1_c3_0" index="0" allow="pedestrian" speed="1.00" length="6.40" width="4.00" shape="2078.89,1190.21 2074.10,1185.96"/>
    </edge>
    <edge id=":1_w0" function="walkingarea">
        <lane id=":1_w0_0" index="0" allow="pedestrian" speed="1.00" length="8.91" width="4.00" shape="2077.56,1191.70 2079.05,1193.03 2091.09,1194.01 2091.85,1192.16 2088.45,1190.93 2085.46,1190.16 2082.88,1189.85 2080.70,1190.01 2078.93,1190.62"/>
    </edge>
    <edge id=":1_w1" function="walkingarea">
        <lane id=":1_w1_0" index="0" allow="pedestrian" speed="1.00" length="3.33" width="4.00" shape="2094.26,1186.23 2095.01,1184.38 2094.97,1182.78 2094.12,1180.96 2092.47,1181.88 2091.49,1182.79 2091.17,1183.67 2091.53,1184.54 2092.56,1185.39"/>
    </edge>
    <edge id=":1_w2" function="walkingarea">
        <lane id=":1_w2_0" index="0" allow="pedestrian" speed="1.00" length="9.53" width="4.00" shape="2091.41,1175.17 2090.57,1173.35 2077.47,1175.22 2076.23,1176.79 2077.86,1177.70 2079.86,1178.13 2082.21,1178.10 2084.92,1177.59 2087.99,1176.62"/>
    </edge>
    <edge id=":1_w3" function="walkingarea">
        <lane id=":1_w3_0" index="0" allow="pedestrian" speed="1.00" length="3.31" width="4.00" shape="2072.27,1181.82 2071.04,1183.39 2071.28,1186.12 2072.77,1187.45 2073.52,1186.44 2073.94,1185.46 2074.02,1184.50 2073.77,1183.58 2073.19,1182.68"/>
    </edge>
    <edge id=":10_0" function="internal">
        <lane id=":10_0_0" index="0" disallow="pedestrian" speed="13.89" length="23.03" shape="2276.57,1249.26 2273.32,1254.79 2270.64,1259.14 2267.73,1263.33 2263.80,1268.39"/>
    </edge>
    <edge id=":10_1" function="internal">
        <lane id=":10_1_0" index="0" disallow="pedestrian" speed="11.01" length="20.71" shape="2276.57,1249.26 2272.37,1254.66 2267.48,1257.75 2261.88,1258.53 2259.52,1257.95"/>
    </edge>
    <edge id=":10_2" function="internal">
        <lane id=":10_2_0" index="0" disallow="pedestrian" speed="7.96" length="17.97" shape="2276.57,1249.26 2272.38,1254.81 2268.66,1256.39 2265.40,1253.99 2264.22,1251.31"/>
    </edge>
    <edge id=":10_3" function="internal">
        <lane id=":10_3_0" index="0" disallow="pedestrian" speed="3.65" length="4.67" shape="2276.57,1249.26 2275.27,1249.89 2274.38,1249.83 2273.89,1249.08 2273.81,1247.64"/>
    </edge>
    <edge id=":10_16" function="internal">
        <lane id=":10_16_0" index="0" disallow="pedestrian" speed="11.01" length="4.04" shape="2259.52,1257.95 2255.60,1256.99"/>
    </edge>
    <edge id=":10_17" function="internal">
        <lane id=":10_17_0" index="0" disallow="pedestrian" speed="7.96" length="4.03" shape="2264.22,1251.31 2262.60,1247.63"/>
    </edge>
    <edge id=":10_4" function="internal">
        <lane id=":10_4_0" index="0" disallow="pedestrian" speed="6.23" length="1.19" shape="2265.66,1246.69 2266.14,1247.78"/>
    </edge>
    <edge id=":10_5" function="internal">
        <lane id=":10_5_0" index="0" disallow="pedestrian" speed="13.38" length="18.59" shape="2265.66,1246.69 2267.16,1253.31 2267.35,1259.13 2266.23,1264.16 2265.82,1264.88"/>
    </edge>
    <edge id=":10_6" function="internal">
        <lane id=":10_6_0" index="0" disallow="pedestrian" speed="8.00" length="17.54" shape="2265.66,1246.69 2266.93,1253.50 2265.67,1257.49 2261.89,1258.65 2259.50,1258.02"/>
    </edge>
    <edge id=":10_7" function="internal">
        <lane id=":10_7_0" index="0" disallow="pedestrian" speed="3.65" length="4.67" shape="2265.66,1246.69 2265.25,1248.07 2264.60,1248.69 2263.72,1248.54 2262.60,1247.63"/>
    </edge>
    <edge id=":10_18" function="internal">
        <lane id=":10_18_0" index="0" disallow="pedestrian" speed="6.23" length="11.63" shape="2266.14,1247.78 2267.29,1250.40 2269.19,1251.80 2271.37,1250.88 2273.81,1247.64"/>
    </edge>
    <edge id=":10_19" function="internal">
        <lane id=":10_19_0" index="0" disallow="pedestrian" speed="13.38" length="4.05" shape="2265.82,1264.88 2263.80,1268.39"/>
    </edge>
    <edge id=":10_20" function="internal">
        <lane id=":10_20_0" index="0" disallow="pedestrian" speed="8.00" length="4.03" shape="2259.50,1258.02 2255.60,1256.99"/>
    </edge>
    <edge id=":10_8" function="internal">
        <lane id=":10_8_0" index="0" disallow="pedestrian" speed="6.33" length="8.88" shape="2256.80,1254.02 2260.49,1254.98 2262.69,1254.23 2263.39,1251.78 2263.35,1251.58"/>
    </edge>
    <edge id=":10_9" function="internal">
        <lane id=":10_9_0" index="0" disallow="pedestrian" speed="9.97" length="16.08" shape="2256.80,1254.02 2261.88,1255.26 2266.41,1254.60 2270.38,1252.06 2271.34,1250.83"/>
    </edge>
    <edge id=":10_10" function="internal">
        <lane id=":10_10_0" index="0" disallow="pedestrian" speed="8.45" length="15.44" shape="2256.80,1254.02 2262.48,1257.05 2265.54,1260.46 2265.98,1264.24 2265.70,1264.78"/>
    </edge>
    <edge id=":10_11" function="internal">
        <lane id=":10_11_0" index="0" disallow="pedestrian" speed="3.65" length="4.67" shape="2256.80,1254.02 2257.61,1255.22 2257.68,1256.11 2257.01,1256.70 2255.60,1256.99"/>
    </edge>
    <edge id=":10_21" function="internal">
        <lane id=":10_21_0" index="0" disallow="pedestrian" speed="6.33" length="4.02" shape="2263.35,1251.58 2262.60,1247.63"/>
    </edge>
    <edge id=":10_22" function="internal">
        <lane id=":10_22_0" index="0" disallow="pedestrian" speed="9.97" length="4.03" shape="2271.34,1250.83 2273.81,1247.64"/>
    </edge>
    <edge id=":10_23" function="internal">
        <lane id=":10_23_0" index="0" disallow="pedestrian" speed="8.45" length="4.08" shape="2265.70,1264.78 2263.80,1268.39"/>
    </edge>
    <edge id=":10_12" function="internal">
        <lane id=":10_12_0" index="0" disallow="pedestrian" speed="7.06" length="9.21" shape="2261.31,1266.38 2262.56,1263.80 2262.02,1261.37 2259.70,1259.10 2259.17,1258.82"/>
    </edge>
    <edge id=":10_13" function="internal">
        <lane id=":10_13_0" index="0" disallow="pedestrian" speed="12.45" length="15.52" shape="2261.31,1266.38 2263.30,1262.83 2264.18,1258.52 2263.95,1253.45 2263.51,1251.53"/>
    </edge>
    <edge id=":10_14" function="internal">
        <lane id=":10_14_0" index="0" disallow="pedestrian" speed="13.89" length="22.56" shape="2261.31,1266.38 2265.20,1261.38 2268.01,1257.32 2270.60,1253.11 2273.81,1247.64"/>
    </edge>
    <edge id=":10_15" function="internal">
        <lane id=":10_15_0" index="0" disallow="pedestrian" speed="3.65" length="4.67" shape="2261.31,1266.38 2262.69,1265.95 2263.56,1266.14 2263.93,1266.95 2263.80,1268.39"/>
    </edge>
    <edge id=":10_24" function="internal">
        <lane id=":10_24_0" index="0" disallow="pedestrian" speed="7.06" length="4.02" shape="2259.17,1258.82 2255.60,1256.99"/>
    </edge>
    <edge id=":10_25" function="internal">
        <lane id=":10_25_0" index="0" disallow="pedestrian" speed="12.45" length="4.01" shape="2263.51,1251.53 2262.60,1247.63"/>
    </edge>
    <edge id=":10_c0" function="crossing" crossingEdges="36 -36">
        <lane id=":10_c0_0" index="0" allow="pedestrian" speed="1.00" length="6.40" width="4.00" shape="2271.42,1248.55 2276.94,1251.79"/>
    </edge>
    <edge id=":10_c1" function="crossing" crossingEdges="-21 21">
        <lane id=":10_c1_0" index="0" allow="pedestrian" speed="1.00" length="6.40" width="4.00" shape="2261.66,1250.01 2267.78,1248.13"/>
    </edge>
    <edge id=":10_c2" function="crossing" crossingEdges="-11 11">
        <lane id=":10_c2_0" index="0" allow="pedestrian" speed="1.00" length="6.40" width="4.00" shape="2256.85,1259.22 2259.26,1253.30"/>
    </edge>
    <edge id=":10_c3" function="crossing" crossingEdges="26 -26">
        <lane id=":10_c3_0" index="0" allow="pedestrian" speed="1.00" length="6.40" width="4.00" shape="2266.30,1267.83 2261.32,1263.82"/>
    </edge>
    <edge id=":10_w0" function="walkingarea">
        <lane id=":10_w0_0" index="0" allow="pedestrian" speed="1.00" length="14.96" width="4.00" shape="2265.05,1269.39 2266.61,1270.65 2279.67,1251.08 2277.95,1250.07 2275.46,1254.35 2273.61,1257.52 2272.03,1260.09 2270.32,1262.59 2268.13,1265.51"/>
    </edge>
    <edge id=":10_w1" function="walkingarea">
        <lane id=":10_w1_0" index="0" allow="pedestrian" speed="1.00" length="3.33" width="4.00" shape="2272.43,1246.83 2270.70,1245.82 2269.10,1245.63 2267.19,1246.22 2267.87,1247.97 2268.63,1249.07 2269.46,1249.50 2270.37,1249.27 2271.36,1248.38"/>
    </edge>
    <edge id=":10_w2" function="walkingarea">
        <lane id=":10_w2_0" index="0" allow="pedestrian" speed="1.00" length="3.62" width="4.00" shape="2261.07,1248.10 2259.16,1248.68 2258.16,1250.69 2257.40,1252.54 2259.10,1253.07 2260.37,1253.09 2261.20,1252.60 2261.59,1251.61 2261.55,1250.10"/>
    </edge>
    <edge id=":10_w3" function="walkingarea">
        <lane id=":10_w3_0" index="0" allow="pedestrian" speed="1.00" length="5.34" width="4.00" shape="2254.99,1258.47 2254.24,1260.32 2258.50,1264.13 2260.06,1265.38 2260.74,1264.17 2260.81,1262.99 2260.27,1261.83 2259.12,1260.69 2257.36,1259.57"/>
    </edge>
    <edge id=":1000_0" function="internal">
        <lane id=":1000_0_0" index="0" disallow="pedestrian" speed="7.11" length="10.82" shape="2392.37,655.91 2394.77,657.64 2396.05,659.73 2396.22,662.18 2395.28,664.98"/>
    </edge>
    <edge id=":1000_1" function="internal">
        <lane id=":1000_1_0" index="0" disallow="pedestrian" speed="5.37" length="5.73" shape="2392.42,663.54 2392.92,662.06 2392.83,660.76 2392.15,659.66 2390.88,658.74"/>
    </edge>
    <edge id=":1000_c0" function="crossing" crossingEdges="-1109 1109">
        <lane id=":1000_c0_0" index="0" allow="pedestrian" speed="1.00" length="6.40" width="4.00" shape="2391.91,661.09 2394.88,655.42"/>
    </edge>
    <edge id=":1000_w0" function="walkingarea">
        <lane id=":1000_w0_0" index="0" allow="pedestrian" speed="1.00" length="8.82" width="4.00" shape="2396.71,665.70 2398.50,666.60 2394.05,652.72 2393.11,654.49 2395.24,655.87 2396.76,657.44 2397.66,659.21 2397.96,661.18 2397.64,663.34"/>
    </edge>
    <edge id=":1000_w1" function="walkingarea">
        <lane id=":1000_w1_0" index="0" allow="pedestrian" speed="1.00" length="1.95" width="4.00" shape="2390.14,660.16 2389.20,661.93 2389.20,661.93 2390.99,662.82 2391.21,662.26 2391.29,661.75 2391.22,661.28 2391.00,660.86 2390.64,660.48"/>
    </edge>
    <edge id=":1004_0" function="internal">
        <lane id=":1004_0_0" index="0" disallow="pedestrian" speed="8.40" length="8.42" shape="2845.61,959.00 2842.48,955.66 2839.62,953.60 2839.32,953.51"/>
    </edge>
    <edge id=":1004_1" function="internal">
        <lane id=":1004_1_0" index="0" disallow="pedestrian" speed="11.35" length="9.48" shape="2845.61,959.00 2842.61,953.90 2842.05,950.39"/>
    </edge>
    <edge id=":1004_2" function="internal">
        <lane id=":1004_2_0" index="0" disallow="pedestrian" speed="8.11" length="10.62" shape="2845.61,959.00 2842.62,953.97 2842.88,950.11 2843.59,949.57"/>
    </edge>
    <edge id=":1004_3" function="internal">
        <lane id=":1004_3_0" index="0" disallow="pedestrian" speed="3.65" length="2.58" shape="2845.61,959.00 2845.47,957.57 2845.83,956.75 2846.08,956.70"/>
    </edge>
    <edge id=":1004_16" function="internal">
        <lane id=":1004_16_0" index="0" disallow="pedestrian" speed="8.40" length="4.76" shape="2839.32,953.51 2837.03,952.81 2834.71,953.29"/>
    </edge>
    <edge id=":1004_17" function="internal">
        <lane id=":1004_17_0" index="0" disallow="pedestrian" speed="11.35" length="14.58" shape="2842.05,950.39 2841.75,948.52 2843.04,942.85 2846.48,936.89"/>
    </edge>
    <edge id=":1004_18" function="internal">
        <lane id=":1004_18_0" index="0" disallow="pedestrian" speed="8.11" length="10.45" shape="2843.59,949.57 2846.39,947.42 2853.14,945.90"/>
    </edge>
    <edge id=":1004_19" function="internal">
        <lane id=":1004_19_0" index="0" disallow="pedestrian" speed="3.65" length="2.09" shape="2846.08,956.70 2846.71,956.55 2848.09,956.97"/>
    </edge>
    <edge id=":1004_4" function="internal">
        <lane id=":1004_4_0" index="0" disallow="pedestrian" speed="6.55" length="2.93" shape="2853.50,949.08 2850.64,949.70"/>
    </edge>
    <edge id=":1004_5" function="internal">
        <lane id=":1004_5_0" index="0" disallow="pedestrian" speed="13.89" length="19.46" shape="2853.50,949.08 2847.73,949.57 2843.73,949.94 2839.91,950.93 2834.71,953.29"/>
    </edge>
    <edge id=":1004_6" function="internal">
        <lane id=":1004_6_0" index="0" disallow="pedestrian" speed="7.97" length="8.59" shape="2853.50,949.08 2846.51,949.05 2845.12,948.25"/>
    </edge>
    <edge id=":1004_7" function="internal">
        <lane id=":1004_7_0" index="0" disallow="pedestrian" speed="3.65" length="2.34" shape="2853.50,949.08 2852.22,948.42 2851.73,947.67"/>
    </edge>
    <edge id=":1004_20" function="internal">
        <lane id=":1004_20_0" index="0" disallow="pedestrian" speed="6.55" length="10.27" shape="2850.64,949.70 2849.07,950.03 2846.70,951.66 2846.37,953.98 2848.09,956.97"/>
    </edge>
    <edge id=":1004_21" function="internal">
        <lane id=":1004_21_0" index="0" disallow="pedestrian" speed="7.97" length="13.50" shape="2845.12,948.25 2843.01,947.01 2843.00,942.96 2846.48,936.89"/>
    </edge>
    <edge id=":1004_22" function="internal">
        <lane id=":1004_22_0" index="0" disallow="pedestrian" speed="3.65" length="2.34" shape="2851.73,947.67 2852.04,946.83 2853.14,945.90"/>
    </edge>
    <edge id=":1004_8" function="internal">
        <lane id=":1004_8_0" index="0" disallow="pedestrian" speed="6.23" length="1.22" shape="2849.05,938.80 2848.45,939.86"/>
    </edge>
    <edge id=":1004_9" function="internal">
        <lane id=":1004_9_0" index="0" disallow="pedestrian" speed="10.33" length="15.73" shape="2849.05,938.80 2846.17,943.75 2845.04,948.43 2845.68,952.84 2846.05,953.47"/>
    </edge>
    <edge id=":1004_10" function="internal">
        <lane id=":1004_10_0" index="0" disallow="pedestrian" speed="13.89" length="20.73" shape="2849.05,938.80 2845.55,943.81 2842.99,947.34 2839.87,950.23 2834.71,953.29"/>
    </edge>
    <edge id=":1004_11" function="internal">
        <lane id=":1004_11_0" index="0" disallow="pedestrian" speed="3.65" length="2.13" shape="2849.05,938.80 2847.70,939.29 2847.02,939.17"/>
    </edge>
    <edge id=":1004_23" function="internal">
        <lane id=":1004_23_0" index="0" disallow="pedestrian" speed="6.23" length="11.66" shape="2848.45,939.86 2847.02,942.33 2847.03,944.69 2849.07,945.89 2853.14,945.90"/>
    </edge>
    <edge id=":1004_24" function="internal">
        <lane id=":1004_24_0" index="0" disallow="pedestrian" speed="10.33" length="4.05" shape="2846.05,953.47 2848.09,956.97"/>
    </edge>
    <edge id=":1004_25" function="internal">
        <lane id=":1004_25_0" index="0" disallow="pedestrian" speed="3.65" length="2.54" shape="2847.02,939.17 2846.82,939.13 2846.41,938.34 2846.48,936.89"/>
    </edge>
    <edge id=":1004_12" function="internal">
        <lane id=":1004_12_0" index="0" disallow="pedestrian" speed="13.89" length="15.26" shape="2833.25,950.44 2838.08,947.57 2840.91,944.90 2843.22,941.61 2844.21,940.19"/>
    </edge>
    <edge id=":1004_13" function="internal">
        <lane id=":1004_13_0" index="0" disallow="pedestrian" speed="13.89" length="20.62" shape="2833.25,950.44 2838.71,947.96 2842.80,946.87 2847.09,946.44 2853.14,945.90"/>
    </edge>
    <edge id=":1004_14" function="internal">
        <lane id=":1004_14_0" index="0" disallow="pedestrian" speed="9.61" length="5.16" shape="2833.25,950.44 2836.67,949.57 2838.26,949.92"/>
    </edge>
    <edge id=":1004_15" function="internal">
        <lane id=":1004_15_0" index="0" disallow="pedestrian" speed="3.65" length="2.34" shape="2833.25,950.44 2834.68,950.61 2835.40,951.14"/>
    </edge>
    <edge id=":1004_26" function="internal">
        <lane id=":1004_26_0" index="0" disallow="pedestrian" speed="13.89" length="4.00" shape="2844.21,940.19 2846.48,936.89"/>
    </edge>
    <edge id=":1004_27" function="internal">
        <lane id=":1004_27_0" index="0" disallow="pedestrian" speed="9.61" length="12.36" shape="2838.26,949.92 2840.29,950.36 2844.09,952.83 2848.09,956.97"/>
    </edge>
    <edge id=":1004_28" function="internal">
        <lane id=":1004_28_0" index="0" disallow="pedestrian" speed="3.65" length="2.34" shape="2835.40,951.14 2835.41,952.03 2834.71,953.29"/>
    </edge>
    <edge id=":1004_c0" function="crossing" crossingEdges="1319 -1319">
        <lane id=":1004_c0_0" index="0" allow="pedestrian" speed="1.00" length="6.40" width="4.00" shape="2848.05,954.41 2843.11,958.47"/>
    </edge>
    <edge id=":1004_c1" function="crossing" crossingEdges="1393 -1393">
        <lane id=":1004_c1_0" index="0" allow="pedestrian" speed="1.00" length="6.40" width="4.00" shape="2850.98,944.54 2851.69,950.90"/>
    </edge>
    <edge id=":1004_c2" function="crossing" crossingEdges="1327 -1327">
        <lane id=":1004_c2_0" index="0" allow="pedestrian" speed="1.00" length="6.40" width="4.00" shape="2844.01,937.55 2849.15,941.36"/>
    </edge>
    <edge id=":1004_c3" function="crossing" crossingEdges="-1005 1005">
        <lane id=":1004_c3_0" index="0" allow="pedestrian" speed="1.00" length="6.40" width="4.00" shape="2837.22,953.80 2834.29,948.11"/>
    </edge>
    <edge id=":1004_w0" function="walkingarea">
        <lane id=":1004_w0_0" index="0" allow="pedestrian" speed="1.00" length="6.39" width="4.00" shape="2835.44,954.71 2836.36,956.49 2842.83,961.29 2844.38,960.02 2842.54,957.94 2840.84,956.34 2839.28,955.21 2837.86,954.57 2836.58,954.40"/>
    </edge>
    <edge id=":1004_w1" function="walkingarea">
        <lane id=":1004_w1_0" index="0" allow="pedestrian" speed="1.00" length="4.30" width="4.00" shape="2849.32,955.96 2850.87,954.69 2853.90,952.66 2853.67,950.67 2851.34,951.07 2849.65,951.66 2848.60,952.44 2848.20,953.42 2848.44,954.59"/>
    </edge>
    <edge id=":1004_w2" function="walkingarea">
        <lane id=":1004_w2_0" index="0" allow="pedestrian" speed="1.00" length="3.33" width="4.00" shape="2852.97,944.31 2852.75,942.33 2851.95,940.94 2850.34,939.75 2849.33,941.35 2848.89,942.61 2849.04,943.54 2849.77,944.13 2851.08,944.39"/>
    </edge>
    <edge id=":1004_w3" function="walkingarea">
        <lane id=":1004_w3_0" index="0" allow="pedestrian" speed="1.00" length="11.47" width="4.00" shape="2845.20,935.94 2843.59,934.75 2831.60,947.24 2832.52,949.02 2835.89,947.11 2838.20,945.41 2839.86,943.67 2841.30,941.66 2842.94,939.16"/>
    </edge>
    <edge id=":105_0" function="internal">
        <lane id=":105_0_0" index="0" disallow="pedestrian" speed="7.21" length="8.71" shape="2171.29,909.08 2170.86,911.34 2169.86,913.13 2168.28,914.44 2166.14,915.28"/>
    </edge>
    <edge id=":105_1" function="internal">
        <lane id=":105_1_0" index="0" disallow="pedestrian" speed="5.44" length="4.61" shape="2165.37,912.18 2166.50,911.73 2167.34,911.04 2167.87,910.09 2168.10,908.89"/>
    </edge>
    <edge id=":105_c0" function="crossing" crossingEdges="647 -647">
        <lane id=":105_c0_0" index="0" allow="pedestrian" speed="1.00" length="6.40" width="4.00" shape="2166.38,910.80 2172.77,911.17"/>
    </edge>
    <edge id=":105_w0" function="walkingarea">
        <lane id=":105_w0_0" index="0" allow="pedestrian" speed="1.00" length="7.45" width="4.00" shape="2166.53,916.84 2167.01,918.78 2174.88,909.29 2172.89,909.17 2172.61,911.10 2172.02,912.77 2171.12,914.18 2169.90,915.32 2168.37,916.21"/>
    </edge>
    <edge id=":105_w1" function="walkingarea">
        <lane id=":105_w1_0" index="0" allow="pedestrian" speed="1.00" length="1.81" width="4.00" shape="2166.50,908.80 2164.50,908.68 2164.50,908.68 2164.98,910.63 2165.42,910.48 2165.79,910.27 2166.08,909.99 2166.29,909.66 2166.43,909.26"/>
    </edge>
    <edge id=":1110_0" function="internal">
        <lane id=":1110_0_0" index="0" disallow="pedestrian" speed="13.89" length="15.60" shape="1986.44,541.70 1981.88,541.45 1978.74,541.87 1975.71,543.02 1971.51,544.95"/>
    </edge>
    <edge id=":1110_1" function="internal">
        <lane id=":1110_1_0" index="0" disallow="pedestrian" speed="13.89" length="17.13" shape="1986.44,541.70 1980.51,540.62 1976.61,538.70 1973.21,535.70 1971.61,534.16"/>
    </edge>
    <edge id=":1110_2" function="internal">
        <lane id=":1110_2_0" index="0" disallow="pedestrian" speed="9.62" length="15.56" shape="1986.44,541.70 1982.87,540.40 1980.34,537.31 1978.86,532.43 1978.69,529.77"/>
    </edge>
    <edge id=":1110_3" function="internal">
        <lane id=":1110_3_0" index="0" disallow="pedestrian" speed="3.65" length="4.67" shape="1986.44,541.70 1985.32,540.79 1985.00,539.95 1985.48,539.20 1986.76,538.52"/>
    </edge>
    <edge id=":1110_16" function="internal">
        <lane id=":1110_16_0" index="0" disallow="pedestrian" speed="13.89" length="4.00" shape="1971.61,534.16 1968.73,531.38"/>
    </edge>
    <edge id=":1110_17" function="internal">
        <lane id=":1110_17_0" index="0" disallow="pedestrian" speed="9.62" length="4.01" shape="1978.69,529.77 1978.43,525.77"/>
    </edge>
    <edge id=":1110_4" function="internal">
        <lane id=":1110_4_0" index="0" disallow="pedestrian" speed="8.44" length="9.77" shape="1981.63,525.80 1981.90,531.17 1982.84,535.08 1983.05,535.39"/>
    </edge>
    <edge id=":1110_5" function="internal">
        <lane id=":1110_5_0" index="0" disallow="pedestrian" speed="12.19" length="18.87" shape="1981.63,525.80 1980.93,532.50 1979.01,537.93 1975.87,542.08 1974.89,542.72"/>
    </edge>
    <edge id=":1110_6" function="internal">
        <lane id=":1110_6_0" index="0" disallow="pedestrian" speed="7.95" length="17.76" shape="1981.63,525.80 1980.75,532.62 1978.30,535.82 1974.30,535.40 1972.00,533.74"/>
    </edge>
    <edge id=":1110_7" function="internal">
        <lane id=":1110_7_0" index="0" disallow="pedestrian" speed="3.65" length="4.67" shape="1981.63,525.80 1980.82,526.99 1980.01,527.38 1979.22,526.98 1978.43,525.77"/>
    </edge>
    <edge id=":1110_18" function="internal">
        <lane id=":1110_18_0" index="0" disallow="pedestrian" speed="8.44" length="5.06" shape="1983.05,535.39 1984.46,537.53 1986.76,538.52"/>
    </edge>
    <edge id=":1110_19" function="internal">