<?xml version="1.0" encoding="UTF-8"?>

<!-- generated on 03/24/20 08:31:50 by Eclipse SUMO netgenerate Version 1.5.0
<configuration xmlns:xsi="http://www.w3.org/2001/XMLSchema-instance" xsi:noNamespaceSchemaLocation="http://sumo.dlr.de/xsd/netgenerateConfiguration.xsd">

    <random_network>
        <rand value="true"/>
        <rand.iterations value="200"/>
    </random_network>

    <output>
        <output-file value="example.net.xml"/>
    </output>

    <processing>
        <roundabouts.guess value="true"/>
    </processing>

    <tls_building>
        <tls.guess value="true"/>
        <tls.guess.threshold value="50"/>
    </tls_building>

    <pedestrian>
        <sidewalks.guess value="true"/>
        <crossings.guess value="true"/>
    </pedestrian>

    <random_number>
        <random value="true"/>
    </random_number>

</configuration>
-->

<net version="1.3" junctionCornerDetail="5" walkingareas="true" limitTurnSpeed="5.50" xmlns:xsi="http://www.w3.org/2001/XMLSchema-instance" xsi:noNamespaceSchemaLocation="http://sumo.dlr.de/xsd/net_file.xsd">

    <location netOffset="1703.97,1302.85" convBoundary="0.00,0.00,3739.61,2894.55" origBoundary="-1703.97,-1302.85,2035.64,1591.70" projParameter="!"/>

    <edge id=":1_0" function="internal">
        <lane id=":1_0_0" index="0" disallow="pedestrian" speed="10.29" length="9.80" shape="1708.75,1305.83 1706.36,1305.74 1703.57,1306.69 1700.36,1308.66 1699.82,1309.10"/>
    </edge>
    <edge id=":1_1" function="internal">
        <lane id=":1_1_0" index="0" disallow="pedestrian" speed="13.89" length="16.70" shape="1708.75,1305.83 1692.68,1301.28"/>
    </edge>
    <edge id=":1_2" function="internal">
        <lane id=":1_2_0" index="0" disallow="pedestrian" speed="10.04" length="4.96" shape="1708.75,1305.83 1705.93,1304.39 1704.76,1303.04"/>
    </edge>
    <edge id=":1_3" function="internal">
        <lane id=":1_3_0" index="0" disallow="pedestrian" speed="3.65" length="2.34" shape="1708.75,1305.83 1707.80,1304.74 1707.63,1303.86"/>
    </edge>
    <edge id=":1_16" function="internal">
        <lane id=":1_16_0" index="0" disallow="pedestrian" speed="10.29" length="4.01" shape="1699.82,1309.10 1696.73,1311.66"/>
    </edge>
    <edge id=":1_17" function="internal">
        <lane id=":1_17_0" index="0" disallow="pedestrian" speed="10.04" length="10.76" shape="1704.76,1303.04 1703.69,1301.80 1702.03,1298.05 1700.94,1293.14"/>
    </edge>
    <edge id=":1_18" function="internal">
        <lane id=":1_18_0" index="0" disallow="pedestrian" speed="3.65" length="2.34" shape="1707.63,1303.86 1708.23,1303.20 1709.60,1302.74"/>
    </edge>
    <edge id=":1_4" function="internal">
        <lane id=":1_4_0" index="0" disallow="pedestrian" speed="8.84" length="7.49" shape="1704.11,1292.69 1704.94,1296.65 1706.13,1299.65 1706.25,1299.82"/>
    </edge>
    <edge id=":1_5" function="internal">
        <lane id=":1_5_0" index="0" disallow="pedestrian" speed="12.98" length="17.19" shape="1704.11,1292.69 1704.23,1297.91 1703.05,1302.82 1700.54,1307.40 1699.41,1308.66"/>
    </edge>
    <edge id=":1_6" function="internal">
        <lane id=":1_6_0" index="0" disallow="pedestrian" speed="7.96" length="9.24" shape="1704.11,1292.69 1704.07,1297.87 1702.15,1301.03 1701.81,1301.13"/>
    </edge>
    <edge id=":1_7" function="internal">
        <lane id=":1_7_0" index="0" disallow="pedestrian" speed="3.65" length="2.53" shape="1704.11,1292.69 1703.49,1293.99 1702.76,1294.50 1702.57,1294.44"/>
    </edge>
    <edge id=":1_19" function="internal">
        <lane id=":1_19_0" index="0" disallow="pedestrian" speed="8.84" length="4.54" shape="1706.25,1299.82 1707.68,1301.68 1709.60,1302.74"/>
    </edge>
    <edge id=":1_20" function="internal">
        <lane id=":1_20_0" index="0" disallow="pedestrian" speed="12.98" length="4.02" shape="1699.41,1308.66 1696.73,1311.66"/>
    </edge>
    <edge id=":1_21" function="internal">
        <lane id=":1_21_0" index="0" disallow="pedestrian" speed="7.96" length="9.35" shape="1701.81,1301.13 1698.35,1302.17 1692.68,1301.28"/>
    </edge>
    <edge id=":1_22" function="internal">
        <lane id=":1_22_0" index="0" disallow="pedestrian" speed="3.65" length="2.14" shape="1702.57,1294.44 1701.91,1294.22 1700.94,1293.14"/>
    </edge>
    <edge id=":1_8" function="internal">
        <lane id=":1_8_0" index="0" disallow="pedestrian" speed="6.42" length="7.25" shape="1693.56,1298.21 1697.20,1298.80 1699.64,1298.15 1700.21,1297.29"/>
    </edge>
    <edge id=":1_9" function="internal">
        <lane id=":1_9_0" index="0" disallow="pedestrian" speed="13.89" length="16.67" shape="1693.56,1298.21 1709.60,1302.74"/>
    </edge>
    <edge id=":1_10" function="internal">
        <lane id=":1_10_0" index="0" disallow="pedestrian" speed="7.81" length="7.15" shape="1693.56,1298.21 1698.86,1300.51 1699.69,1301.60"/>
    </edge>
    <edge id=":1_11" function="internal">
        <lane id=":1_11_0" index="0" disallow="pedestrian" speed="3.65" length="2.34" shape="1693.56,1298.21 1694.49,1299.31 1694.66,1300.18"/>
    </edge>
    <edge id=":1_23" function="internal">
        <lane id=":1_23_0" index="0" disallow="pedestrian" speed="6.42" length="4.35" shape="1700.21,1297.29 1700.89,1296.27 1700.94,1293.14"/>
    </edge>
    <edge id=":1_24" function="internal">
        <lane id=":1_24_0" index="0" disallow="pedestrian" speed="7.81" length="11.96" shape="1699.69,1301.60 1701.15,1303.52 1700.44,1307.23 1696.73,1311.66"/>
    </edge>
    <edge id=":1_25" function="internal">
        <lane id=":1_25_0" index="0" disallow="pedestrian" speed="3.65" length="2.34" shape="1694.66,1300.18 1694.05,1300.84 1692.68,1301.28"/>
    </edge>
    <edge id=":1_12" function="internal">
        <lane id=":1_12_0" index="0" disallow="pedestrian" speed="6.17" length="7.22" shape="1694.57,1309.30 1696.78,1306.66 1697.20,1304.45 1696.28,1303.24"/>
    </edge>
    <edge id=":1_13" function="internal">
        <lane id=":1_13_0" index="0" disallow="pedestrian" speed="12.02" length="14.07" shape="1694.57,1309.30 1697.85,1305.64 1700.01,1301.73 1701.04,1297.57 1701.03,1297.17"/>
    </edge>
    <edge id=":1_14" function="internal">
        <lane id=":1_14_0" index="0" disallow="pedestrian" speed="11.37" length="6.75" shape="1694.57,1309.30 1698.87,1305.81 1699.92,1305.20"/>
    </edge>
    <edge id=":1_15" function="internal">
        <lane id=":1_15_0" index="0" disallow="pedestrian" speed="3.65" length="2.16" shape="1694.57,1309.30 1695.99,1309.08 1696.66,1309.33"/>
    </edge>
    <edge id=":1_26" function="internal">
        <lane id=":1_26_0" index="0" disallow="pedestrian" speed="6.17" length="4.17" shape="1696.28,1303.24 1695.83,1302.65 1692.68,1301.28"/>
    </edge>
    <edge id=":1_27" function="internal">
        <lane id=":1_27_0" index="0" disallow="pedestrian" speed="12.02" length="4.03" shape="1701.03,1297.17 1700.94,1293.14"/>
    </edge>
    <edge id=":1_28" function="internal">
        <lane id=":1_28_0" index="0" disallow="pedestrian" speed="11.37" length="10.27" shape="1699.92,1305.20 1702.81,1303.55 1706.39,1302.53 1709.60,1302.74"/>
    </edge>
    <edge id=":1_29" function="internal">
        <lane id=":1_29_0" index="0" disallow="pedestrian" speed="3.65" length="2.51" shape="1696.66,1309.33 1696.83,1309.40 1697.07,1310.26 1696.73,1311.66"/>
    </edge>
    <edge id=":1_c0" function="crossing" crossingEdges="13 -13">
        <lane id=":1_c0_0" index="0" allow="pedestrian" speed="1.00" length="6.40" width="4.00" shape="1708.09,1300.67 1706.39,1306.84"/>
    </edge>
    <edge id=":1_c1" function="crossing" crossingEdges="3 -3">
        <lane id=":1_c1_0" index="0" allow="pedestrian" speed="1.00" length="6.40" width="4.00" shape="1699.65,1295.35 1705.98,1294.44"/>
    </edge>
    <edge id=":1_c2" function="crossing" crossingEdges="5 -5">
        <lane id=":1_c2_0" index="0" allow="pedestrian" speed="1.00" length="6.40" width="4.00" shape="1694.16,1303.37 1695.92,1297.22"/>
    </edge>
    <edge id=":1_c3" function="crossing" crossingEdges="17 -17">
        <lane id=":1_c3_0" index="0" allow="pedestrian" speed="1.00" length="6.40" width="4.00" shape="1699.29,1311.48 1694.96,1306.77"/>
    </edge>
    <edge id=":1_w0" function="walkingarea">
        <lane id=":1_w0_0" index="0" allow="pedestrian" speed="1.00" length="7.26" width="4.00" shape="1697.81,1312.84 1699.16,1314.31 1707.79,1309.30 1708.32,1307.37 1707.06,1307.26 1705.60,1307.55 1703.95,1308.26 1702.10,1309.37 1700.05,1310.90"/>
    </edge>
    <edge id=":1_w1" function="walkingarea">
        <lane id=":1_w1_0" index="0" allow="pedestrian" speed="1.00" length="5.91" width="4.00" shape="1710.02,1301.20 1710.55,1299.27 1707.67,1292.17 1705.69,1292.46 1706.13,1294.88 1706.68,1296.92 1707.35,1298.58 1708.12,1299.84 1709.02,1300.71"/>
    </edge>
    <edge id=":1_w2" function="walkingarea">
        <lane id=":1_w2_0" index="0" allow="pedestrian" speed="1.00" length="3.85" width="4.00" shape="1699.36,1293.37 1697.38,1293.66 1694.55,1294.75 1694.00,1296.67 1695.84,1297.06 1697.30,1297.08 1698.39,1296.72 1699.09,1295.98 1699.41,1294.86"/>
    </edge>
    <edge id=":1_w3" function="walkingarea">
        <lane id=":1_w3_0" index="0" allow="pedestrian" speed="1.00" length="3.35" width="4.00" shape="1692.24,1302.82 1691.69,1304.74 1692.14,1306.65 1693.49,1308.12 1694.59,1306.93 1695.17,1305.86 1695.23,1304.91 1694.76,1304.09 1693.76,1303.39"/>
    </edge>
    <edge id=":1021_0" function="internal">
        <lane id=":1021_0_0" index="0" disallow="pedestrian" speed="6.19" length="10.80" shape="2204.10,1306.49 2201.35,1304.88 2199.14,1304.79 2197.47,1306.24 2196.34,1309.23"/>
    </edge>
    <edge id=":1021_1" function="internal">
        <lane id=":1021_1_0" index="0" disallow="pedestrian" speed="13.07" length="15.34" shape="2204.10,1306.49 2200.37,1303.81 2197.72,1301.79 2195.96,1299.26 2194.93,1295.05"/>
    </edge>
    <edge id=":1021_2" function="internal">
        <lane id=":1021_2_0" index="0" disallow="pedestrian" speed="3.65" length="4.67" shape="2204.10,1306.49 2203.65,1305.12 2203.83,1304.25 2204.64,1303.87 2206.08,1303.98"/>
    </edge>
    <edge id=":1021_3" function="internal">
        <lane id=":1021_3_0" index="0" disallow="pedestrian" speed="12.00" length="8.88" shape="2198.10,1294.62 2199.01,1298.12 2200.59,1300.16 2202.79,1301.69"/>
    </edge>
    <edge id=":1021_4" function="internal">
        <lane id=":1021_4_0" index="0" disallow="pedestrian" speed="13.89" length="14.87" shape="2198.10,1294.62 2198.47,1298.97 2198.20,1301.97 2197.44,1304.95 2196.34,1309.23"/>
    </edge>
    <edge id=":1021_5" function="internal">
        <lane id=":1021_5_0" index="0" disallow="pedestrian" speed="3.65" length="2.34" shape="2198.10,1294.62 2197.47,1295.92 2196.73,1296.42"/>
    </edge>
    <edge id=":1021_9" function="internal">
        <lane id=":1021_9_0" index="0" disallow="pedestrian" speed="12.00" length="4.01" shape="2202.79,1301.69 2202.91,1301.77 2206.08,1303.98"/>
    </edge>
    <edge id=":1021_10" function="internal">
        <lane id=":1021_10_0" index="0" disallow="pedestrian" speed="3.65" length="2.34" shape="2196.73,1296.42 2195.88,1296.13 2194.93,1295.05"/>
    </edge>
    <edge id=":1021_6" function="internal">
        <lane id=":1021_6_0" index="0" disallow="pedestrian" speed="13.89" length="13.72" shape="2193.22,1308.51 2194.25,1304.56 2194.98,1301.82 2195.26,1299.06 2194.93,1295.05"/>
    </edge>
    <edge id=":1021_7" function="internal">
        <lane id=":1021_7_0" index="0" disallow="pedestrian" speed="7.78" length="7.08" shape="2193.22,1308.51 2195.09,1303.57 2196.44,1302.39"/>
    </edge>
    <edge id=":1021_8" function="internal">
        <lane id=":1021_8_0" index="0" disallow="pedestrian" speed="3.65" length="2.34" shape="2193.22,1308.51 2194.27,1307.52 2195.14,1307.31"/>
    </edge>
    <edge id=":1021_11" function="internal">
        <lane id=":1021_11_0" index="0" disallow="pedestrian" speed="7.78" length="10.83" shape="2196.44,1302.39 2197.86,1301.16 2201.52,1301.30 2206.08,1303.98"/>
    </edge>
    <edge id=":1021_12" function="internal">
        <lane id=":1021_12_0" index="0" disallow="pedestrian" speed="3.65" length="2.34" shape="2195.14,1307.31 2195.83,1307.88 2196.34,1309.23"/>
    </edge>
    <edge id=":1021_c0" function="crossing" crossingEdges="1175 -1175">
        <lane id=":1021_c0_0" index="0" allow="pedestrian" speed="1.00" length="6.40" width="4.00" shape="2205.50,1301.49 2201.53,1306.51"/>
    </edge>
    <edge id=":1021_c1" function="crossing" crossingEdges="-1022 1022">
        <lane id=":1021_c1_0" index="0" allow="pedestrian" speed="1.00" length="6.40" width="4.00" shape="2193.61,1297.24 2199.95,1296.39"/>
    </edge>
    <edge id=":1021_c2" function="crossing" crossingEdges="-1043 1043">
        <lane id=":1021_c2_0" index="0" allow="pedestrian" speed="1.00" length="6.40" width="4.00" shape="2198.35,1307.63 2192.11,1306.21"/>
    </edge>
    <edge id=":1021_w0" function="walkingarea">
        <lane id=":1021_w0_0" index="0" allow="pedestrian" speed="1.00" length="3.36" width="4.00" shape="2197.90,1309.58 2199.85,1310.03 2201.87,1309.32 2203.10,1307.75 2201.83,1306.91 2200.72,1306.53 2199.78,1306.61 2198.99,1307.14 2198.36,1308.13"/>
    </edge>
    <edge id=":1021_w1" function="walkingarea">
        <lane id=":1021_w1_0" index="0" allow="pedestrian" speed="1.00" length="6.77" width="4.00" shape="2207.07,1302.73 2208.31,1301.16 2201.67,1294.14 2199.68,1294.41 2200.19,1296.70 2200.96,1298.25 2202.02,1299.34 2203.38,1300.26 2205.06,1301.30"/>
    </edge>
    <edge id=":1021_w2" function="walkingarea">
        <lane id=":1021_w2_0" index="0" allow="pedestrian" speed="1.00" length="8.02" width="4.00" shape="2193.34,1295.26 2191.36,1295.53 2189.71,1307.71 2191.66,1308.16 2192.35,1305.45 2192.93,1303.43 2193.37,1301.75 2193.61,1300.06 2193.62,1298.01"/>
    </edge>
    <edge id=":1024_0" function="internal">
        <lane id=":1024_0_0" index="0" disallow="pedestrian" speed="13.89" length="19.87" shape="2283.00,919.81 2281.06,915.25 2280.11,910.52 2280.16,905.61 2281.21,900.54"/>
    </edge>
    <edge id=":1024_1" function="internal">
        <lane id=":1024_1_0" index="0" disallow="pedestrian" speed="7.88" length="8.72" shape="2283.00,919.81 2281.29,915.15 2281.82,911.58 2281.93,911.48"/>
    </edge>
    <edge id=":1024_2" function="internal">
        <lane id=":1024_2_0" index="0" disallow="pedestrian" speed="3.65" length="2.50" shape="2283.00,919.81 2283.13,918.37 2283.64,917.63 2283.80,917.63"/>
    </edge>
    <edge id=":1024_9" function="internal">
        <lane id=":1024_9_0" index="0" disallow="pedestrian" speed="7.88" length="8.80" shape="2281.93,911.48 2284.60,909.10 2289.63,907.70"/>
    </edge>
    <edge id=":1024_10" function="internal">
        <lane id=":1024_10_0" index="0" disallow="pedestrian" speed="3.65" length="2.18" shape="2283.80,917.63 2284.53,917.60 2285.81,918.27"/>
    </edge>
    <edge id=":1024_3" function="internal">
        <lane id=":1024_3_0" index="0" disallow="pedestrian" speed="6.33" length="10.83" shape="2290.07,910.87 2286.91,911.73 2285.14,913.26 2284.78,915.43 2285.81,918.27"/>
    </edge>
    <edge id=":1024_4" function="internal">
        <lane id=":1024_4_0" index="0" disallow="pedestrian" speed="7.78" length="17.77" shape="2290.07,910.87 2284.83,910.87 2281.61,909.16 2280.40,905.71 2281.21,900.54"/>
    </edge>
    <edge id=":1024_5" function="internal">
        <lane id=":1024_5_0" index="0" disallow="pedestrian" speed="3.65" length="4.67" shape="2290.07,910.87 2288.77,910.24 2288.26,909.50 2288.55,908.65 2289.63,907.70"/>
    </edge>
    <edge id=":1024_6" function="internal">
        <lane id=":1024_6_0" index="0" disallow="pedestrian" speed="6.19" length="6.50" shape="2284.27,901.46 2283.79,904.58 2284.52,906.66 2285.52,907.20"/>
    </edge>
    <edge id=":1024_7" function="internal">
        <lane id=":1024_7_0" index="0" disallow="pedestrian" speed="13.57" length="13.31" shape="2284.27,901.46 2283.35,905.90 2283.30,910.18 2284.12,914.30 2284.23,914.57"/>
    </edge>
    <edge id=":1024_8" function="internal">
        <lane id=":1024_8_0" index="0" disallow="pedestrian" speed="3.65" length="2.18" shape="2284.27,901.46 2283.16,902.38 2282.44,902.50"/>
    </edge>
    <edge id=":1024_11" function="internal">
        <lane id=":1024_11_0" index="0" disallow="pedestrian" speed="6.19" length="4.23" shape="2285.52,907.20 2286.46,907.70 2289.63,907.70"/>
    </edge>
    <edge id=":1024_12" function="internal">
        <lane id=":1024_12_0" index="0" disallow="pedestrian" speed="13.57" length="4.02" shape="2284.23,914.57 2285.81,918.27"/>
    </edge>
    <edge id=":1024_13" function="internal">
        <lane id=":1024_13_0" index="0" disallow="pedestrian" speed="3.65" length="2.49" shape="2282.44,902.50 2282.28,902.53 2281.63,901.92 2281.21,900.54"/>
    </edge>
    <edge id=":1024_c0" function="crossing" crossingEdges="-1165 1165">
        <lane id=":1024_c0_0" index="0" allow="pedestrian" speed="1.00" length="6.40" width="4.00" shape="2286.25,915.75 2280.64,918.82"/>
    </edge>
    <edge id=":1024_c1" function="crossing" crossingEdges="1444 -1444">
        <lane id=":1024_c1_0" index="0" allow="pedestrian" speed="1.00" length="6.40" width="4.00" shape="2287.42,906.39 2288.31,912.73"/>
    </edge>
    <edge id=":1024_c2" function="crossing" crossingEdges="-1025 1025">
        <lane id=":1024_c2_0" index="0" allow="pedestrian" speed="1.00" length="6.40" width="4.00" shape="2279.10,901.99 2285.23,903.83"/>
    </edge>
    <edge id=":1024_w0" function="walkingarea">
        <lane id=":1024_w0_0" index="0" allow="pedestrian" speed="1.00" length="13.50" width="4.00" shape="2279.68,900.08 2277.76,899.50 2279.84,921.53 2281.60,920.57 2280.10,917.36 2279.07,914.06 2278.51,910.68 2278.43,907.23 2278.82,903.69"/>
    </edge>
    <edge id=":1024_w1" function="walkingarea">
        <lane id=":1024_w1_0" index="0" allow="pedestrian" speed="1.00" length="3.58" width="4.00" shape="2287.21,917.50 2288.97,916.54 2290.57,914.43 2290.29,912.45 2288.70,912.80 2287.54,913.35 2286.81,914.09 2286.51,915.03 2286.65,916.17"/>
    </edge>
    <edge id=":1024_w2" function="walkingarea">
        <lane id=":1024_w2_0" index="0" allow="pedestrian" speed="1.00" length="3.36" width="4.00" shape="2289.40,906.11 2289.13,904.13 2287.72,902.49 2285.81,901.92 2285.50,903.40 2285.55,904.56 2285.97,905.42 2286.75,905.96 2287.90,906.19"/>
    </edge>
    <edge id=":1026_0" function="internal">
        <lane id=":1026_0_0" index="0" disallow="pedestrian" speed="3.65" length="4.67" shape="1494.59,412.44 1494.31,411.03 1494.60,410.18 1495.45,409.90 1496.86,410.19"/>
    </edge>
    <edge id=":1026_w0" function="walkingarea">
        <lane id=":1026_w0_0" index="0" allow="pedestrian" speed="1.00" length="8.40" width="2.00" shape="1497.99,409.06 1499.41,407.65 1492.03,414.98 1493.45,413.57"/>
    </edge>
    <edge id=":1028_0" function="internal">
        <lane id=":1028_0_0" index="0" disallow="pedestrian" speed="3.65" length="4.67" shape="1361.82,554.24 1360.52,553.62 1360.01,552.88 1360.30,552.03 1361.37,551.07"/>
    </edge>
    <edge id=":1028_w0" function="walkingarea">
        <lane id=":1028_w0_0" index="0" allow="pedestrian" speed="1.00" length="8.40" width="2.00" shape="1361.15,549.49 1360.87,547.51 1362.32,557.81 1362.04,555.83"/>
    </edge>
    <edge id=":1030_0" function="internal">
        <lane id=":1030_0_0" index="0" disallow="pedestrian" speed="8.87" length="3.63" shape="1863.58,1974.44 1862.09,1972.84 1860.93,1971.98"/>
    </edge>
    <edge id=":1030_1" function="internal">
        <lane id=":1030_1_0" index="0" disallow="pedestrian" speed="8.13" length="4.26" shape="1863.58,1974.44 1862.04,1971.87 1861.77,1970.63"/>
    </edge>
    <edge id=":1030_2" function="internal">
        <lane id=":1030_2_0" index="0" disallow="pedestrian" speed="3.65" length="2.19" shape="1863.58,1974.44 1863.46,1973.01 1863.78,1972.33"/>
    </edge>
    <edge id=":1030_9" function="internal">
        <lane id=":1030_9_0" index="0" disallow="pedestrian" speed="8.87" length="4.22" shape="1860.93,1971.98 1860.50,1971.66 1858.81,1970.91 1857.01,1970.59"/>
    </edge>
    <edge id=":1030_10" function="internal">
        <lane id=":1030_10_0" index="0" disallow="pedestrian" speed="8.13" length="7.07" shape="1861.77,1970.63 1861.48,1969.26 1861.88,1966.62 1863.25,1963.95"/>
    </edge>
    <edge id=":1030_11" function="internal">
        <lane id=":1030_11_0" index="0" disallow="pedestrian" speed="3.65" length="2.49" shape="1863.78,1972.33 1863.84,1972.20 1864.72,1972.02 1866.09,1972.46"/>
    </edge>
    <edge id=":1030_3" function="internal">
        <lane id=":1030_3_0" index="0" disallow="pedestrian" speed="6.61" length="7.23" shape="1865.88,1965.77 1865.01,1967.47 1864.75,1969.16 1865.11,1970.82 1866.09,1972.46"/>
    </edge>
    <edge id=":1030_4" function="internal">
        <lane id=":1030_4_0" index="0" disallow="pedestrian" speed="8.97" length="10.57" shape="1865.88,1965.77 1864.00,1968.00 1861.89,1969.54 1859.56,1970.41 1857.01,1970.59"/>
    </edge>
    <edge id=":1030_5" function="internal">
        <lane id=":1030_5_0" index="0" disallow="pedestrian" speed="3.65" length="4.67" shape="1865.88,1965.77 1864.54,1966.31 1863.66,1966.18 1863.23,1965.39 1863.25,1963.95"/>
    </edge>
    <edge id=":1030_6" function="internal">
        <lane id=":1030_6_0" index="0" disallow="pedestrian" speed="7.54" length="3.14" shape="1857.20,1967.39 1858.90,1967.26 1860.24,1966.73"/>
    </edge>
    <edge id=":1030_7" function="internal">
        <lane id=":1030_7_0" index="0" disallow="pedestrian" speed="10.20" length="10.54" shape="1857.20,1967.39 1859.69,1967.82 1861.99,1968.81 1864.13,1970.36 1866.09,1972.46"/>
    </edge>
    <edge id=":1030_8" function="internal">
        <lane id=":1030_8_0" index="0" disallow="pedestrian" speed="3.65" length="2.53" shape="1857.20,1967.39 1858.35,1968.26 1858.70,1969.08 1858.61,1969.25"/>
    </edge>
    <edge id=":1030_12" function="internal">
        <lane id=":1030_12_0" index="0" disallow="pedestrian" speed="7.54" length="4.14" shape="1860.24,1966.73 1860.48,1966.64 1861.93,1965.54 1863.25,1963.95"/>
    </edge>
    <edge id=":1030_13" function="internal">
        <lane id=":1030_13_0" index="0" disallow="pedestrian" speed="3.65" length="2.15" shape="1858.61,1969.25 1858.26,1969.86 1857.01,1970.59"/>
    </edge>
    <edge id=":1030_c0" function="crossing" crossingEdges="1982 -1982">
        <lane id=":1030_c0_0" index="0" allow="pedestrian" speed="1.00" length="6.40" width="4.00" shape="1866.11,1969.90 1861.08,1973.86"/>
    </edge>
    <edge id=":1030_c1" function="crossing" crossingEdges="-1031 1031">
        <lane id=":1030_c1_0" index="0" allow="pedestrian" speed="1.00" length="6.40" width="4.00" shape="1860.80,1964.69 1866.06,1968.33"/>
    </edge>
    <edge id=":1030_c2" function="crossing" crossingEdges="1976 -1976">
        <lane id=":1030_c2_0" index="0" allow="pedestrian" speed="1.00" length="6.40" width="4.00" shape="1858.91,1972.30 1859.30,1965.91"/>
    </edge>
    <edge id=":1030_w0" function="walkingarea">
        <lane id=":1030_w0_0" index="0" allow="pedestrian" speed="1.00" length="3.58" width="4.00" shape="1856.91,1972.18 1856.79,1974.18 1860.75,1976.67 1862.32,1975.43 1861.50,1974.49 1860.64,1973.71 1859.76,1973.09 1858.84,1972.62 1857.89,1972.32"/>
    </edge>
    <edge id=":1030_w1" function="walkingarea">
        <lane id=":1030_w1_0" index="0" allow="pedestrian" speed="1.00" length="2.70" width="4.00" shape="1867.35,1971.47 1868.92,1970.24 1868.84,1967.82 1867.20,1966.69 1866.73,1967.50 1866.46,1968.31 1866.39,1969.11 1866.51,1969.90 1866.83,1970.69"/>
    </edge>
    <edge id=":1030_w2" function="walkingarea">
        <lane id=":1030_w2_0" index="0" allow="pedestrian" speed="1.00" length="3.03" width="4.00" shape="1861.94,1963.04 1860.29,1961.90 1857.42,1963.80 1857.30,1965.79 1858.16,1965.76 1858.98,1965.56 1859.77,1965.19 1860.53,1964.64 1861.25,1963.93"/>
    </edge>
    <edge id=":1034_0" function="internal">
        <lane id=":1034_0_0" index="0" disallow="pedestrian" speed="13.89" length="20.10" shape="2095.46,1953.33 2090.52,1950.01 2086.95,1948.01 2083.16,1946.45 2077.54,1944.46"/>
    </edge>
    <edge id=":1034_1" function="internal">
        <lane id=":1034_1_0" index="0" disallow="pedestrian" speed="13.89" length="17.17" shape="2095.46,1953.33 2090.63,1949.59 2087.85,1946.19 2086.20,1942.02 2085.70,1939.89"/>
    </edge>
    <edge id=":1034_2" function="internal">
        <lane id=":1034_2_0" index="0" disallow="pedestrian" speed="7.93" length="13.31" shape="2095.46,1953.33 2091.96,1950.01 2090.86,1946.60 2092.17,1943.08 2093.00,1942.28"/>
    </edge>
    <edge id=":1034_3" function="internal">
        <lane id=":1034_3_0" index="0" disallow="pedestrian" speed="3.65" length="4.67" shape="2095.46,1953.33 2094.93,1951.99 2095.06,1951.10 2095.84,1950.67 2097.28,1950.70"/>
    </edge>
    <edge id=":1034_16" function="internal">
        <lane id=":1034_16_0" index="0" disallow="pedestrian" speed="13.89" length="4.00" shape="2085.70,1939.89 2084.78,1935.99"/>
    </edge>
    <edge id=":1034_17" function="internal">
        <lane id=":1034_17_0" index="0" disallow="pedestrian" speed="7.93" length="4.03" shape="2093.00,1942.28 2095.89,1939.47"/>
    </edge>
    <edge id=":1034_4" function="internal">
        <lane id=":1034_4_0" index="0" disallow="pedestrian" speed="6.40" length="6.50" shape="2097.80,1942.03 2095.42,1944.33 2094.54,1946.54 2094.76,1947.32"/>
    </edge>
    <edge id=":1034_5" function="internal">
        <lane id=":1034_5_0" index="0" disallow="pedestrian" speed="12.93" length="17.26" shape="2097.80,1942.03 2093.26,1944.63 2088.36,1945.89 2083.13,1945.84 2081.44,1945.42"/>
    </edge>
    <edge id=":1034_6" function="internal">
        <lane id=":1034_6_0" index="0" disallow="pedestrian" speed="7.98" length="14.62" shape="2097.80,1942.03 2093.22,1944.46 2089.52,1944.26 2086.71,1941.44 2086.13,1939.79"/>
    </edge>
    <edge id=":1034_7" function="internal">
        <lane id=":1034_7_0" index="0" disallow="pedestrian" speed="3.65" length="4.67" shape="2097.80,1942.03 2096.36,1942.11 2095.56,1941.71 2095.41,1940.83 2095.89,1939.47"/>
    </edge>
    <edge id=":1034_18" function="internal">
        <lane id=":1034_18_0" index="0" disallow="pedestrian" speed="6.40" length="4.35" shape="2094.76,1947.32 2095.16,1948.66 2097.28,1950.70"/>
    </edge>
    <edge id=":1034_19" function="internal">
        <lane id=":1034_19_0" index="0" disallow="pedestrian" speed="12.93" length="4.02" shape="2081.44,1945.42 2077.54,1944.46"/>
    </edge>
    <edge id=":1034_20" function="internal">
        <lane id=":1034_20_0" index="0" disallow="pedestrian" speed="7.98" length="4.03" shape="2086.13,1939.79 2084.78,1935.99"/>
    </edge>
    <edge id=":1034_8" function="internal">
        <lane id=":1034_8_0" index="0" disallow="pedestrian" speed="6.44" length="7.30" shape="2087.91,1935.31 2089.12,1938.82 2090.86,1940.69 2091.89,1940.78"/>
    </edge>
    <edge id=":1034_9" function="internal">
        <lane id=":1034_9_0" index="0" disallow="pedestrian" speed="13.89" length="18.77" shape="2087.91,1935.31 2089.15,1940.70 2090.55,1944.38 2092.97,1947.36 2097.28,1950.70"/>
    </edge>
    <edge id=":1034_10" function="internal">
        <lane id=":1034_10_0" index="0" disallow="pedestrian" speed="7.81" length="15.17" shape="2087.91,1935.31 2088.41,1941.10 2086.85,1944.55 2083.22,1945.67 2081.49,1945.30"/>
    </edge>
    <edge id=":1034_11" function="internal">
        <lane id=":1034_11_0" index="0" disallow="pedestrian" speed="3.65" length="4.67" shape="2087.91,1935.31 2087.39,1936.65 2086.69,1937.21 2085.82,1936.99 2084.78,1935.99"/>
    </edge>
    <edge id=":1034_21" function="internal">
        <lane id=":1034_21_0" index="0" disallow="pedestrian" speed="6.44" length="4.36" shape="2091.89,1940.78 2093.12,1940.90 2095.89,1939.47"/>
    </edge>
    <edge id=":1034_22" function="internal">
        <lane id=":1034_22_0" index="0" disallow="pedestrian" speed="7.81" length="4.03" shape="2081.49,1945.30 2077.54,1944.46"/>
    </edge>
    <edge id=":1034_12" function="internal">
        <lane id=":1034_12_0" index="0" disallow="pedestrian" speed="6.17" length="7.27" shape="2078.61,1941.44 2081.99,1942.17 2084.15,1941.50 2084.79,1940.09"/>
    </edge>
    <edge id=":1034_13" function="internal">
        <lane id=":1034_13_0" index="0" disallow="pedestrian" speed="11.97" length="14.11" shape="2078.61,1941.44 2083.40,1942.64 2087.88,1942.71 2092.05,1941.65 2092.39,1941.46"/>
    </edge>
    <edge id=":1034_14" function="internal">
        <lane id=":1034_14_0" index="0" disallow="pedestrian" speed="13.89" length="20.95" shape="2078.61,1941.44 2084.35,1943.50 2088.40,1945.19 2092.23,1947.32 2097.28,1950.70"/>
    </edge>
    <edge id=":1034_15" function="internal">
        <lane id=":1034_15_0" index="0" disallow="pedestrian" speed="3.65" length="4.67" shape="2078.61,1941.44 2079.47,1942.60 2079.58,1943.49 2078.94,1944.11 2077.54,1944.46"/>
    </edge>
    <edge id=":1034_23" function="internal">
        <lane id=":1034_23_0" index="0" disallow="pedestrian" speed="6.17" length="4.17" shape="2084.79,1940.09 2085.08,1939.44 2084.78,1935.99"/>
    </edge>
    <edge id=":1034_24" function="internal">
        <lane id=":1034_24_0" index="0" disallow="pedestrian" speed="11.97" length="4.03" shape="2092.39,1941.46 2095.89,1939.47"/>
    </edge>
    <edge id=":1034_c0" function="crossing" crossingEdges="1552 -1552">
        <lane id=":1034_c0_0" index="0" allow="pedestrian" speed="1.00" length="6.40" width="4.00" shape="2096.55,1948.24 2092.90,1953.50"/>
    </edge>
    <edge id=":1034_c1" function="crossing" crossingEdges="1553 -1553">
        <lane id=":1034_c1_0" index="0" allow="pedestrian" speed="1.00" length="6.40" width="4.00" shape="2093.33,1939.38 2097.15,1944.51"/>
    </edge>